geometry optimzed in LAMMPS
_audit_creation_date              2020-11-30 
_audit_creation_method            'lammps2cif' 
_symmetry_space_group_name_H-M    'P1' 
_symmetry_Int_Tables_number       1 
_symmetry_cell_setting            triclinic 
loop_ 
_symmetry_equiv_pos_as_xyz 
  x,y,z 
_cell_length_a                    40.38775850446575 
_cell_length_b                    40.50615455156051 
_cell_length_c                    40.49237424347152 
_cell_angle_alpha                 90.11264360558684 
_cell_angle_beta                  90.32225052045308 
_cell_angle_gamma                 89.9428908321014 
loop_ 
_atom_site_label 
_atom_site_type_symbol 
_atom_site_fract_x 
_atom_site_fract_y 
_atom_site_fract_z 
_atom_site_charge 
C1          C  0.26243631  0.27903633  0.49181593     0.00450
C2          C  0.28534005  0.25402087  0.49462015     0.00450
C3          C  0.27526912  0.45795878  0.29265960     0.00450
C4          C  0.24748014  0.45751109  0.31258714     0.00450
C5          C  0.47589554  0.28252920  0.29050499     0.00450
C6          C  0.47186415  0.25357279  0.30876501     0.00450
C7          C  0.17107649  0.14238508  0.99810025     0.00450
C8          C  0.14704061  0.16783745  0.00050259     0.00450
C9          C  0.96287263  0.17163917  0.18405150     0.00450
C10         C  0.96416166  0.15203080  0.21282998     0.00450
C11         C  0.14073009  0.96086776  0.19911802     0.00450
C12         C  0.16355269  0.96474767  0.17265375     0.00450
C13         C  0.66721560  0.27258993  0.50625835     0.00450
C14         C  0.64519492  0.24581337  0.50870188     0.00450
C15         C  0.28429856  0.65843710  0.49729239     0.00450
C16         C  0.25489759  0.64043014  0.49144817     0.00450
C17         C  0.45827935  0.62976539  0.30603564     0.00450
C18         C  0.45916479  0.65064632  0.33325088     0.00450
C19         C  0.64706599  0.46051341  0.29190255     0.00450
C20         C  0.67339663  0.46385389  0.31382610     0.00450
C21         C  0.46351617  0.27361990  0.70411945     0.00450
C22         C  0.46668601  0.24891879  0.67965365     0.00450
C23         C  0.28911769  0.45915211  0.69593141     0.00450
C24         C  0.26370866  0.46380413  0.67268653     0.00450
C25         C  0.16946724  0.77531695  0.00434021     0.00450
C26         C  0.14788367  0.74796176  0.00604053     0.00450
C27         C  0.77225676  0.17462264  0.00022161     0.00450
C28         C  0.74490742  0.15351259  0.00247223     0.00450
C29         C  0.95165440  0.15644017  0.82710196     0.00450
C30         C  0.95394852  0.13443669  0.80011426     0.00450
C31         C  0.17266029  0.96185422  0.81458723     0.00450
C32         C  0.15006553  0.95766597  0.78855198     0.00450
C33         C  0.97078711  0.74624948  0.18844905     0.00450
C34         C  0.96819717  0.77535259  0.20691787     0.00450
C35         C  0.76313111  0.96126291  0.17212323     0.00450
C36         C  0.78982628  0.96226939  0.19454623     0.00450
N37         N  0.29376424  0.49285521  0.96336679    -0.06230
N38         N  0.31590864  0.49566250  0.94011864    -0.58350
N39         N  0.26770317  0.51731593  0.03663776    -0.05910
N40         N  0.27017539  0.53721512  0.06246542    -0.60480
N41         N  0.29125755  0.49503657  0.03725773    -0.05510
N42         N  0.31064701  0.49963726  0.06305137    -0.58330
N43         N  0.27055050  0.51532228  0.96048573    -0.05190
N44         N  0.27633722  0.53389885  0.93437117    -0.60830
C45         C  0.30521188  0.52153106  0.92247575     0.95940
C46         C  0.29738524  0.52600539  0.07858691     0.95720
N47         N  0.16667147  0.49585941  0.03444435    -0.06420
N48         N  0.14326348  0.50694903  0.05454074    -0.58930
N49         N  0.19155318  0.51685869  0.95929699    -0.04540
N50         N  0.18400969  0.54380504  0.94279681    -0.60180
N51         N  0.16619939  0.49624799  0.95971193    -0.06450
N52         N  0.14071229  0.51002048  0.94388095    -0.59200
N53         N  0.19133761  0.51714040  0.03394590    -0.04180
N54         N  0.18575121  0.54204094  0.05395720    -0.60270
Mn55       Mn  0.23033268  0.51708875  0.99720404     1.18440
C56         C  0.15615100  0.53538853  0.06725315     0.98030
C57         C  0.15258101  0.53946152  0.93272691     0.98690
N58         N  0.29129562  0.41887767  0.03822127    -0.06470
N59         N  0.30903344  0.41906758  0.06529823    -0.62780
N60         N  0.27015716  0.39383835  0.96231920    -0.05270
N61         N  0.27277503  0.37519972  0.93569062    -0.63450
N62         N  0.29326801  0.41654884  0.96265434    -0.05970
N63         N  0.31207908  0.41377501  0.93625726    -0.63040
N64         N  0.26859487  0.39591372  0.03934344    -0.04870
N65         N  0.27054165  0.37991975  0.06781202    -0.63730
Mn66       Mn  0.29326330  0.45562465  0.00034739     1.10660
C67         C  0.29623851  0.39482094  0.08373489     0.99250
C68         C  0.29918134  0.38779731  0.91952519     0.99330
N69         N  0.16720226  0.41257819  0.96028724    -0.05980
N70         N  0.14250078  0.39885568  0.94321814    -0.61350
N71         N  0.19230062  0.39387365  0.03610718    -0.05300
N72         N  0.18596207  0.36777718  0.05411075    -0.58080
N73         N  0.16662187  0.41397053  0.03486942    -0.06610
N74         N  0.14176822  0.40068443  0.05157953    -0.60920
N75         N  0.19234152  0.39170337  0.96152823    -0.05600
N76         N  0.18539794  0.36451773  0.94506352    -0.58110
Mn77       Mn  0.16546847  0.45470583  0.99711640     1.20190
Mn78       Mn  0.23112110  0.39338432  0.99975432     1.10090
Cl79       Cl  0.22970615  0.45523947  0.99825712    -0.86080
C80         C  0.15436521  0.36882519  0.93349718     0.96260
C81         C  0.15466381  0.37213036  0.06391429     0.96050
N82         N  0.63529995  0.42952959  0.96043703    -0.06230
N83         N  0.61485089  0.42475275  0.93532156    -0.58350
N84         N  0.66348693  0.40970467  0.03656264    -0.05910
N85         N  0.66291936  0.39300121  0.06452795    -0.60480
N86         N  0.64001513  0.43211495  0.03635758    -0.05510
N87         N  0.62322556  0.43133237  0.06413183    -0.58330
N88         N  0.65842005  0.40680021  0.96067484    -0.05190
N89         N  0.65432066  0.38622881  0.93592787    -0.60830
C90         C  0.62699013  0.39731383  0.92035702     0.95940
C91         C  0.63746584  0.40668105  0.08148753     0.95720
N92         N  0.76628961  0.42647021  0.02775678    -0.06420
N93         N  0.79144115  0.41423383  0.04534673    -0.58930
N94         N  0.73514464  0.40424946  0.95541563    -0.04540
N95         N  0.74069027  0.37679112  0.93883848    -0.60180
N96         N  0.76050343  0.42468760  0.95300804    -0.06450
N97         N  0.78417877  0.41009626  0.93545793    -0.59200
N98         N  0.74071954  0.40641052  0.03007931    -0.04180
N99         N  0.74758017  0.38117273  0.04924867    -0.60270
Mn100      Mn  0.69917634  0.40648845  0.99579406     1.18440
C101        C  0.77891914  0.38622836  0.05928014     0.98030
C102        C  0.77097584  0.38055452  0.92579711     0.98690
N103        N  0.63977040  0.50747178  0.03462204    -0.06470
N104        N  0.62132311  0.51111214  0.06093198    -0.62780
N105        N  0.65886707  0.52966515  0.95849938    -0.05270
N106        N  0.65519903  0.54892330  0.93251502    -0.63450
N107        N  0.63537466  0.50740624  0.95941521    -0.05970
N108        N  0.61491339  0.51134241  0.93428755    -0.63040
N109        N  0.66343677  0.52948948  0.03438989    -0.04870
N110        N  0.66149039  0.54888322  0.06060056    -0.63730
Mn111      Mn  0.63638696  0.46898232  0.99739549     1.10660
C112        C  0.63493848  0.53708442  0.07704569     0.99250
C113        C  0.62736408  0.53764132  0.91775275     0.99330
N114        N  0.76061920  0.50952497  0.95211099    -0.05980
N115        N  0.78291001  0.52394913  0.93252228    -0.61350
N116        N  0.74009614  0.52842379  0.02918149    -0.05300
N117        N  0.74742414  0.55436570  0.04715812    -0.58080
N118        N  0.76570249  0.50832343  0.02671123    -0.06610
N119        N  0.79142328  0.52138728  0.04253151    -0.60920
N120        N  0.73503202  0.52955326  0.95503863    -0.05600
N121        N  0.73891489  0.55632319  0.93751641    -0.58110
Mn122      Mn  0.76469009  0.46727509  0.98944403     1.20190
Mn123      Mn  0.69935009  0.52938218  0.99442262     1.10090
Cl124      Cl  0.70020640  0.46797697  0.99396902    -0.86080
C125        C  0.76838662  0.55319941  0.92320458     0.96260
C126        C  0.77917200  0.54981272  0.05563641     0.96050
C127        C  0.83879340  0.25433758  0.90322643     0.00450
C128        C  0.86681026  0.25317162  0.88264044     0.00450
C129        C  0.86776692  0.66731992  0.11792822     0.00450
C130        C  0.84124527  0.67176313  0.09590714     0.00450
N131        N  0.93195911  0.41788886  0.80015230    -0.06230
N132        N  0.91736445  0.40489114  0.82647310    -0.58350
N133        N  0.00553196  0.39552307  0.77336633    -0.05910
N134        N  0.02313064  0.36931934  0.78111396    -0.60480
N135        N  0.00647573  0.41743899  0.79746745    -0.05510
N136        N  0.02432227  0.40575497  0.82239941    -0.58330
N137        N  0.93030417  0.39666596  0.77540761    -0.05190
N138        N  0.91372771  0.37023065  0.78409705    -0.60830
C139        C  0.90571413  0.37507968  0.81598476     0.95940
C140        C  0.03503280  0.37593084  0.81148362     0.95720
N141        N  0.00316658  0.41684959  0.67240935    -0.06420
N142        N  0.02980921  0.41545567  0.65397946    -0.58930
N143        N  0.92716128  0.39526762  0.69811717    -0.04540
N144        N  0.89976620  0.37747231  0.69686817    -0.60180
N145        N  0.92737652  0.41693257  0.67410523    -0.06450
N146        N  0.90042387  0.41428762  0.65589575    -0.59200
N147        N  0.00457213  0.39495877  0.69620352    -0.04180
N148        N  0.03257742  0.37812613  0.69442441    -0.60270
Mn149      Mn  0.96684122  0.39495052  0.73552243     1.18440
C150        C  0.04791352  0.39105272  0.66770696     0.98030
C151        C  0.88351412  0.38940810  0.67005585     0.98690
N152        N  0.00741458  0.49836986  0.79559240    -0.06470
N153        N  0.02395810  0.51188334  0.82053626    -0.62780
N154        N  0.93236846  0.51943382  0.77213899    -0.05270
N155        N  0.91990137  0.54830374  0.77935051    -0.63450
N156        N  0.93442717  0.50082460  0.79879105    -0.05970
N157        N  0.92455872  0.51830749  0.82485916    -0.63040
N158        N  0.00687163  0.51890900  0.77032031    -0.04870
N159        N  0.02363415  0.54586974  0.77740866    -0.63730
Mn160      Mn  0.96991918  0.45845786  0.79878220     1.10660
C161        C  0.03477685  0.54110544  0.80841474     0.99250
C162        C  0.91533287  0.54801341  0.81208132     0.99330
N163        N  0.92779890  0.49288900  0.67253035    -0.05980
N164        N  0.90076541  0.49469184  0.65444267    -0.61350
N165        N  0.00465043  0.51562338  0.69297331    -0.05300
N166        N  0.03144309  0.53381106  0.68983912    -0.58080
N167        N  0.00387737  0.49252661  0.67029097    -0.06610
N168        N  0.03027253  0.49433952  0.65132441    -0.60920
N169        N  0.92789975  0.51592566  0.69527876    -0.05600
N170        N  0.90068662  0.53397525  0.69305220    -0.58110
Mn171      Mn  0.96550078  0.45472540  0.67117246     1.20190
Mn172      Mn  0.96788463  0.51771463  0.73233106     1.10090
Cl173      Cl  0.96746483  0.45645999  0.73474128    -0.86080
C174        C  0.88389152  0.52035032  0.66730133     0.96260
C175        C  0.04718091  0.52046135  0.66357308     0.96050
C176        C  0.08492214  0.24572112  0.89419326     0.00450
C177        C  0.06063119  0.24880078  0.86899143     0.00450
C178        C  0.86988129  0.67122718  0.87043318     0.00450
C179        C  0.84218416  0.66699682  0.89035112     0.00450
C180        C  0.08295192  0.66359697  0.90259376     0.00450
C181        C  0.06291118  0.66615252  0.87370616     0.00450
C182        C  0.85618544  0.25826046  0.13083497     0.00450
C183        C  0.83756267  0.26116901  0.10112525     0.00450
N184        N  0.92194216  0.49994880  0.19921384    -0.06230
N185        N  0.90726892  0.51403271  0.17330407    -0.58350
N186        N  0.99503904  0.51902356  0.23001635    -0.05910
N187        N  0.01343602  0.54534539  0.22497879    -0.60480
N188        N  0.99647418  0.49864534  0.20454391    -0.05510
N189        N  0.01544919  0.51179341  0.18133895    -0.58330
N190        N  0.92033078  0.51990631  0.22487576    -0.05190
N191        N  0.90440406  0.54709986  0.21703440    -0.60830
C192        C  0.89568430  0.54332119  0.18513663     0.95940
C193        C  0.02643027  0.54064866  0.19482664     0.95720
N194        N  0.98934069  0.49183658  0.32922181    -0.06420
N195        N  0.01299557  0.49574935  0.35121529    -0.58930
N196        N  0.91535090  0.51368478  0.30304296    -0.04540
N197        N  0.88909453  0.53254867  0.30656428    -0.60180
N198        N  0.91547753  0.49038748  0.32554697    -0.06450
N199        N  0.88942827  0.49273943  0.34468464    -0.59200
N200        N  0.99004126  0.51536137  0.30709456    -0.04180
N201        N  0.01432576  0.53595855  0.31343160    -0.60270
Mn202      Mn  0.95503408  0.51739404  0.26643086     1.18440
C203        C  0.02808774  0.52352656  0.34121253     0.98030
C204        C  0.87301469  0.51898860  0.33240136     0.98690
N205        N  0.99519695  0.41639724  0.20187261    -0.06470
N206        N  0.01671415  0.40577914  0.17946000    -0.62780
N207        N  0.91738861  0.39784053  0.22454691    -0.05270
N208        N  0.89388596  0.37605709  0.21945869    -0.63450
N209        N  0.91857772  0.41942146  0.20029500    -0.05970
N210        N  0.89607509  0.41157039  0.17766081    -0.63040
N211        N  0.99302850  0.39440865  0.22565422    -0.04870
N212        N  0.01298755  0.36937117  0.22037450    -0.63730
Mn213      Mn  0.95831634  0.45825439  0.20005942     1.10660
C214        C  0.02790150  0.37638033  0.19165354     0.99250
C215        C  0.88031507  0.38467977  0.19034540     0.99330
N216        N  0.91630039  0.41489327  0.32426086    -0.05980
N217        N  0.88939601  0.41275898  0.34216220    -0.61350
N218        N  0.99308531  0.39362509  0.30164037    -0.05300
N219        N  0.02164918  0.37768481  0.30230239    -0.58080
N220        N  0.99232798  0.41596912  0.32507926    -0.06610
N221        N  0.02018665  0.41581687  0.34195443    -0.60920
N222        N  0.91571532  0.39331430  0.30022007    -0.05600
N223        N  0.88802132  0.37595253  0.30109850    -0.58110
Mn224      Mn  0.95346170  0.45302677  0.32705904     1.20190
Mn225      Mn  0.95476072  0.39386480  0.26296925     1.10090
Cl226      Cl  0.95551778  0.45576700  0.26384367    -0.86080
C227        C  0.87178363  0.38859827  0.32747863     0.96260
C228        C  0.03831367  0.39168769  0.32791643     0.96050
N229        N  0.43064605  0.28309833  0.95497956    -0.06230
N230        N  0.42868110  0.29933152  0.92659454    -0.58350
N231        N  0.40802159  0.26826970  0.03383421    -0.05910
N232        N  0.39069895  0.27325247  0.06090977    -0.60480
N233        N  0.43201846  0.28987959  0.03169741    -0.05510
N234        N  0.43157244  0.31004765  0.05721695    -0.58330
N235        N  0.40697782  0.26097090  0.95688410    -0.05190
N236        N  0.38834446  0.26207774  0.92992085    -0.60830
C237        C  0.40206097  0.28601951  0.91089537     0.95940
C238        C  0.40543745  0.29971863  0.07509604     0.95720
N239        N  0.42329868  0.16628224  0.04527428    -0.06420
N240        N  0.40986221  0.14514702  0.06653966    -0.58930
N241        N  0.40128920  0.18309677  0.96786017    -0.04540
N242        N  0.37423890  0.17595986  0.95120431    -0.60180
N243        N  0.42034208  0.15674228  0.97105272    -0.06450
N244        N  0.40556774  0.13096045  0.95676969    -0.59200
N245        N  0.40397989  0.19244129  0.04241944    -0.04180
N246        N  0.37860694  0.19013871  0.06242768    -0.60270
Mn247      Mn  0.40454479  0.22648151  0.99990966     1.18440
C248        C  0.38208942  0.16075507  0.07766384     0.98030
C249        C  0.37687674  0.14362426  0.94414498     0.98690
N250        N  0.50955360  0.28591047  0.03100128    -0.06470
N251        N  0.51539393  0.30604949  0.05608329    -0.62780
N252        N  0.52759263  0.25396903  0.95591166    -0.05270
N253        N  0.54626013  0.25489973  0.92921687    -0.63450
N254        N  0.50681800  0.27878041  0.95623221    -0.05970
N255        N  0.51070875  0.29711834  0.93011560    -0.63040
N256        N  0.53141565  0.26200976  0.03083467    -0.04870
N257        N  0.55250339  0.26515897  0.05557374    -0.63730
Mn258      Mn  0.46960848  0.28551090  0.99365994     1.10660
C259        C  0.54273784  0.29300989  0.07089987     0.99250
C260        C  0.53523195  0.28215965  0.91325280     0.99330
N261        N  0.50261238  0.15283189  0.96894208    -0.05980
N262        N  0.51323089  0.12564081  0.95393281    -0.61350
N263        N  0.52570686  0.18873944  0.04015452    -0.05300
N264        N  0.55161847  0.18646506  0.05952410    -0.58080
N265        N  0.50628233  0.16285046  0.04293720    -0.06610
N266        N  0.52110749  0.14099325  0.06262624    -0.60920
N267        N  0.52434190  0.17678072  0.96481613    -0.05600
N268        N  0.54910169  0.16668679  0.94632028    -0.58110
Mn269      Mn  0.46314064  0.15819217  0.00728231     1.20190
Mn270      Mn  0.52750441  0.22021120  0.99738616     1.10090
Cl271      Cl  0.46597377  0.22201806  0.99927280    -0.86080
C272        C  0.54189401  0.13501449  0.93918628     0.96260
C273        C  0.54933484  0.15660654  0.07309475     0.96050
N274        N  0.42263727  0.92789940  0.66865570    -0.06230
N275        N  0.42073068  0.90323500  0.64731222    -0.58350
N276        N  0.39906943  0.00179204  0.69943162    -0.05910
N277        N  0.38093688  0.02908776  0.69875942    -0.60480
N278        N  0.42153540  0.00236016  0.67618564    -0.05510
N279        N  0.41815514  0.02903014  0.65829020    -0.58330
N280        N  0.39936222  0.92538327  0.69111352    -0.05190
N281        N  0.38125946  0.89878298  0.68550284    -0.60830
C282        C  0.39448473  0.88549038  0.65777687     0.95940
C283        C  0.39354331  0.04608301  0.67296882     0.95720
N284        N  0.41767024  0.99172550  0.80113705    -0.06420
N285        N  0.40594559  0.00890516  0.82651173    -0.58930
N286        N  0.39486508  0.91944738  0.76874695    -0.04540
N287        N  0.36815183  0.90151889  0.77376796    -0.60180
N288        N  0.41551280  0.91706083  0.79394897    -0.06450
N289        N  0.40257496  0.89739660  0.81658448    -0.59200
N290        N  0.39679874  0.99390644  0.77598641    -0.04180
N291        N  0.37158104  0.01303585  0.78338252    -0.60270
Mn292      Mn  0.39698234  0.96011350  0.73361430     1.18440
C293        C  0.37762709  0.02282839  0.81456389     0.98030
C294        C  0.37315307  0.88733204  0.80341273     0.98690
N295        N  0.50096624  0.00426971  0.68166800    -0.06470
N296        N  0.50573599  0.03390767  0.66853220    -0.62780
N297        N  0.52057282  0.92399271  0.69627472    -0.05270
N298        N  0.53757488  0.89644513  0.69364156    -0.63450
N299        N  0.49917220  0.92681156  0.67204529    -0.05970
N300        N  0.50094031  0.90070899  0.65253010    -0.63040
N301        N  0.52277523  0.99944863  0.70541373    -0.04870
N302        N  0.54249293  0.02515397  0.70902716    -0.63730
Mn303      Mn  0.46129501  0.96579065  0.67318506     1.10660
C304        C  0.53164152  0.04662863  0.68610950     0.99250
C305        C  0.52529205  0.88204423  0.66614900     0.99330
N306        N  0.49588990  0.91386355  0.79569885    -0.05980
N307        N  0.50613940  0.89329528  0.81894642    -0.61350
N308        N  0.52214427  0.98954373  0.77997813    -0.05300
N309        N  0.54972135  0.00451328  0.78823956    -0.58080
N310        N  0.50142770  0.98813870  0.80493652    -0.06610
N311        N  0.51600779  0.00177120  0.83135211    -0.60920
N312        N  0.51816395  0.91547540  0.77210666    -0.05600
N313        N  0.54341095  0.89603493  0.77876980    -0.58110
Mn314      Mn  0.45751754  0.95292475  0.80008378     1.20190
Mn315      Mn  0.52096726  0.95701429  0.73804175     1.10090
Cl316      Cl  0.45905833  0.95918052  0.73645193    -0.86080
C317        C  0.53580329  0.88217707  0.80793706     0.96260
C318        C  0.54599678  0.01263648  0.81998653     0.96050
C319        C  0.25302539  0.83502868  0.90468145     0.00450
C320        C  0.25407294  0.85950373  0.88022388     0.00450
C321        C  0.66801081  0.07504129  0.90837832     0.00450
C322        C  0.67057257  0.04644971  0.88863848     0.00450
C323        C  0.66375791  0.83437050  0.89673136     0.00450
C324        C  0.66104845  0.85847785  0.87184573     0.00450
N325        N  0.41869147  0.75843028  0.96608672    -0.06230
N326        N  0.40686481  0.78315356  0.94813108    -0.58350
N327        N  0.39673214  0.73311839  0.03943778    -0.05910
N328        N  0.37068047  0.73890492  0.05760367    -0.60480
N329        N  0.41794047  0.75772208  0.04103482    -0.05510
N330        N  0.40561298  0.78135501  0.06009061    -0.58330
N331        N  0.39790629  0.73337591  0.96470723    -0.05190
N332        N  0.37254749  0.74022993  0.94543611    -0.60830
C333        C  0.37847075  0.77099227  0.93464222     0.95940
C334        C  0.37613713  0.76888506  0.07048391     0.95720
N335        N  0.41905669  0.63514033  0.04283477    -0.06420
N336        N  0.41726401  0.61963785  0.07145473    -0.58930
N337        N  0.39688398  0.65643381  0.96508435    -0.04540
N338        N  0.37829014  0.65338891  0.93836701    -0.60180
N339        N  0.41898728  0.63280437  0.96651616    -0.06450
N340        N  0.41607916  0.61302241  0.94093119    -0.59200
N341        N  0.39634194  0.65825321  0.04129627    -0.04180
N342        N  0.37868096  0.65901025  0.06859076    -0.60270
Mn343      Mn  0.39653293  0.69515890  0.00229352     1.18440
C344        C  0.39165065  0.63458899  0.08717747     0.98030
C345        C  0.39072475  0.62617063  0.92357279     0.98690
N346        N  0.50021772  0.75849324  0.04216864    -0.06470
N347        N  0.51320606  0.78356308  0.05900644    -0.62780
N348        N  0.52067578  0.73405676  0.96730418    -0.05270
N349        N  0.54653348  0.74111448  0.94917204    -0.63450
N350        N  0.49946827  0.75878683  0.96724695    -0.05970
N351        N  0.51120751  0.78338748  0.94915743    -0.63040
N352        N  0.52142767  0.73369084  0.04211529    -0.04870
N353        N  0.54826272  0.74116707  0.05921814    -0.63730
Mn354      Mn  0.45897446  0.75955417  0.00433290     1.10660
C355        C  0.54306321  0.77217686  0.06998542     0.99250
C356        C  0.54058335  0.77177791  0.93775899     0.99330
N357        N  0.49578620  0.63348183  0.96592959    -0.05980
N358        N  0.49834671  0.61520512  0.93904244    -0.61350
N359        N  0.51886915  0.65668801  0.04183433    -0.05300
N360        N  0.53712820  0.65373976  0.06874436    -0.58080
N361        N  0.49586010  0.63393362  0.04110247    -0.06610
N362        N  0.49791700  0.61507233  0.06722084    -0.60920
N363        N  0.51853844  0.65661932  0.96612711    -0.05600
N364        N  0.53699479  0.65444977  0.93951689    -0.58110
Mn365      Mn  0.45744146  0.63248329  0.00413478     1.20190
Mn366      Mn  0.52043815  0.69497732  0.00434964     1.10090
Cl367      Cl  0.45843320  0.69576852  0.00372813    -0.86080
C368        C  0.52420898  0.62860917  0.92265991     0.96260
C369        C  0.52374207  0.62738382  0.08423727     0.96050
C370        C  0.25318733  0.83120470  0.11077006     0.00450
C371        C  0.25650313  0.85540184  0.13582589     0.00450
C372        C  0.25129503  0.08958140  0.89510602     0.00450
C373        C  0.25338792  0.06614505  0.87005145     0.00450
C374        C  0.67358869  0.86523929  0.11029624     0.00450
C375        C  0.67079771  0.83539840  0.09263897     0.00450
N376        N  0.42640804  0.91620059  0.19450211    -0.06230
N377        N  0.41591850  0.89548942  0.17129200    -0.58350
N378        N  0.39960561  0.99105509  0.21123084    -0.05910
N379        N  0.37124635  0.00202987  0.19907652    -0.60480
N380        N  0.42220178  0.99001051  0.18777840    -0.05510
N381        N  0.40900183  0.00029073  0.15943917    -0.58330
N382        N  0.40447333  0.91736290  0.21850629    -0.05190
N383        N  0.37984252  0.89709013  0.21275167    -0.60830
C384        C  0.38703830  0.88335363  0.18349749     0.95940
C385        C  0.37723377  0.00816525  0.16691084     0.95720
N386        N  0.42420684  0.99732311  0.31476107    -0.06420
N387        N  0.42213181  0.02420474  0.33278137    -0.58930
N388        N  0.40189605  0.92142687  0.29412278    -0.04540
N389        N  0.38295107  0.89512845  0.29780992    -0.60180
N390        N  0.42474137  0.92232566  0.31717307    -0.06450
N391        N  0.42200483  0.89713410  0.33708860    -0.59200
N392        N  0.40206982  0.99796965  0.29081240    -0.04180
N393        N  0.38440597  0.02552826  0.29245094    -0.60270
Mn394      Mn  0.40136083  0.95744208  0.25400844     1.18440
C395        C  0.39715754  0.04161772  0.31914289     0.98030
C396        C  0.39590605  0.88035415  0.32486734     0.98690
N397        N  0.50391411  0.99510617  0.19477979    -0.06470
N398        N  0.51617513  0.01435735  0.17132915    -0.62780
N399        N  0.52828026  0.92198874  0.22135355    -0.05270
N400        N  0.55634381  0.90695689  0.21503246    -0.63450
N401        N  0.50825154  0.92082202  0.19559631    -0.05970
N402        N  0.52334712  0.90536347  0.17096354    -0.63040
N403        N  0.52358127  0.99611744  0.22085909    -0.04870
N404        N  0.54831882  0.01622820  0.21609305    -0.63730
Mn405      Mn  0.46534745  0.95552634  0.19213532     1.10660
C406        C  0.54390261  0.02766321  0.18532570     0.99250
C407        C  0.55313930  0.89620349  0.18387042     0.99330
N408        N  0.50147220  0.91935799  0.31950931    -0.05980
N409        N  0.50327689  0.89088379  0.33576749    -0.61350
N410        N  0.52299898  0.99842605  0.29669371    -0.05300
N411        N  0.53933026  0.02668382  0.29761527    -0.58080
N412        N  0.49990979  0.99803116  0.31919641    -0.06610
N413        N  0.49975108  0.02607934  0.33584951    -0.60920
N414        N  0.52504016  0.92069280  0.29736979    -0.05600
N415        N  0.54339224  0.89368506  0.29822143    -0.58110
Mn416      Mn  0.46256958  0.95908323  0.31898189     1.20190
Mn417      Mn  0.52529024  0.95932924  0.25939405     1.10090
Cl418      Cl  0.46352361  0.95795943  0.25584049    -0.86080
C419        C  0.53011110  0.87532918  0.32260713     0.96260
C420        C  0.52473678  0.04365955  0.32240135     0.96050
N421        N  0.28711917  0.92762531  0.46533189    -0.06230
N422        N  0.30705618  0.90214483  0.46321055    -0.58350
N423        N  0.26477110  0.00371417  0.44380795    -0.05910
N424        N  0.26853314  0.03042893  0.42574126    -0.60480
N425        N  0.28697402  0.00273921  0.46750299    -0.05510
N426        N  0.30623228  0.02891471  0.46618327    -0.58330
N427        N  0.26516971  0.92747274  0.44139795    -0.05190
N428        N  0.26961429  0.90128570  0.42243268    -0.60830
C429        C  0.29608741  0.88586506  0.43628696     0.95940
C430        C  0.29462058  0.04600094  0.43989764     0.95720
N431        N  0.16224222  0.00400621  0.45934805    -0.06420
N432        N  0.13981389  0.02556230  0.44877971    -0.58930
N433        N  0.18831153  0.92888496  0.43605617    -0.04540
N434        N  0.18463812  0.91035631  0.40963395    -0.60180
N435        N  0.16179543  0.92801394  0.45494422    -0.06450
N436        N  0.13900124  0.90913662  0.44025392    -0.59200
N437        N  0.18780364  0.00426469  0.43919464    -0.04180
N438        N  0.18335608  0.02603589  0.41541146    -0.60270
Mn439      Mn  0.22654531  0.96606023  0.43945441     1.18440
C440        C  0.15362346  0.03980671  0.42160826     0.98030
C441        C  0.15424629  0.89754880  0.41243373     0.98690
N442        N  0.28401831  0.99951600  0.54296383    -0.06470
N443        N  0.30505750  0.02359470  0.54784924    -0.62780
N444        N  0.25807323  0.92566611  0.56311963    -0.05270
N445        N  0.25661280  0.89845278  0.58065328    -0.63450
N446        N  0.28195587  0.92423461  0.54138259    -0.05970
N447        N  0.29736464  0.89557029  0.54346446    -0.63040
N448        N  0.25976879  0.00084580  0.56422660    -0.04870
N449        N  0.26391010  0.02600782  0.58454862    -0.63730
Mn450      Mn  0.28612752  0.96342595  0.50433145     1.10660
C451        C  0.29234139  0.03993133  0.57381201     0.99250
C452        C  0.28119276  0.88003294  0.56819437     0.99330
N453        N  0.15814471  0.92582780  0.53882397    -0.05980
N454        N  0.13377049  0.90802075  0.55185008    -0.61350
N455        N  0.18188116  0.00042926  0.56171287    -0.05300
N456        N  0.17444961  0.01617930  0.58889455    -0.58080
N457        N  0.15645447  0.00009692  0.54116870    -0.06610
N458        N  0.13086336  0.01540151  0.55535958    -0.60920
N459        N  0.18344984  0.92575969  0.55954913    -0.05600
N460        N  0.17781038  0.90695194  0.58517915    -0.58110
Mn461      Mn  0.15804330  0.96430835  0.49820392     1.20190
Mn462      Mn  0.22089254  0.96365725  0.56223326     1.10090
Cl463      Cl  0.22257362  0.96437884  0.50098415    -0.86080
C464        C  0.14706667  0.89574373  0.58045934     0.96260
C465        C  0.14302747  0.02605465  0.58511810     0.96050
N466        N  0.99344970  0.28321846  0.45983877    -0.06230
N467        N  0.01944247  0.30229325  0.45650103    -0.58350
N468        N  0.91707663  0.25897711  0.43962795    -0.05910
N469        N  0.88990790  0.26127341  0.42143630    -0.60480
N470        N  0.91778005  0.28236045  0.46203366    -0.05510
N471        N  0.89132775  0.30115434  0.45959784    -0.58330
N472        N  0.99365094  0.25973925  0.43756250    -0.05190
N473        N  0.01987334  0.26241542  0.41843953    -0.60830
C474        C  0.03561312  0.28941901  0.43044679     0.95940
C475        C  0.87431996  0.28808006  0.43397160     0.95720
N476        N  0.91977433  0.15757590  0.45990379    -0.06420
N477        N  0.90131244  0.13340417  0.44721765    -0.58930
N478        N  0.99387319  0.18297631  0.43712486    -0.04540
N479        N  0.01138510  0.17698078  0.41051744    -0.60180
N480        N  0.99483581  0.15772879  0.45770821    -0.06450
N481        N  0.01262268  0.13355328  0.44414122    -0.59200
N482        N  0.91916308  0.18290077  0.43952344    -0.04180
N483        N  0.90009692  0.17702800  0.41393862    -0.60270
Mn484      Mn  0.95600559  0.22128070  0.43814296     1.18440
C485        C  0.88850917  0.14649449  0.41878065     0.98030
C486        C  0.02358474  0.14651944  0.41503993     0.98690
N487        N  0.92005859  0.28329664  0.53824516    -0.06470
N488        N  0.89178927  0.29952766  0.53986920    -0.62780
N489        N  0.99889759  0.26162044  0.55815336    -0.05270
N490        N  0.02758740  0.26346355  0.57390042    -0.63450
N491        N  0.99700104  0.28456003  0.53543976    -0.05970
N492        N  0.02427734  0.30238441  0.53514843    -0.63040
N493        N  0.92136127  0.26042410  0.56106964    -0.04870
N494        N  0.89397281  0.26055785  0.57873123    -0.63730
Mn495      Mn  0.95698446  0.28460152  0.49901626     1.10660
C496        C  0.87565796  0.28505808  0.56517843     0.99250
C497        C  0.04328597  0.28906265  0.55930156     0.99330
N498        N  0.99695114  0.15859621  0.54173177    -0.05980
N499        N  0.01251525  0.13364381  0.55654916    -0.61350
N500        N  0.92344657  0.18433009  0.56313920    -0.05300
N501        N  0.90545991  0.17897998  0.58947217    -0.58080
N502        N  0.92205778  0.15898937  0.54266939    -0.06610
N503        N  0.90325010  0.13552412  0.55584335    -0.60920
N504        N  0.99827694  0.18474430  0.56128222    -0.05600
N505        N  0.01533849  0.17845197  0.58829778    -0.58110
Mn506      Mn  0.95849498  0.15678497  0.50049326     1.20190
Mn507      Mn  0.96067517  0.22311769  0.56128885     1.10090
Cl508      Cl  0.95815380  0.22107689  0.49974318    -0.86080
C509        C  0.02443883  0.14678863  0.58531378     0.96260
C510        C  0.89273862  0.14863578  0.58507561     0.96050
C511        C  0.83338557  0.06218055  0.28902116     0.00450
C512        C  0.85954406  0.08482520  0.29247656     0.00450
N513        N  0.63326186  0.99164584  0.45906387    -0.06230
N514        N  0.61306878  0.01682983  0.45666904    -0.58350
N515        N  0.65864112  0.91644382  0.43793180    -0.05910
N516        N  0.65570645  0.88924808  0.42022320    -0.60480
N517        N  0.63532287  0.91742119  0.46043151    -0.05510
N518        N  0.61625532  0.89116083  0.45858201    -0.58330
N519        N  0.65598863  0.99256645  0.43606899    -0.05190
N520        N  0.65172325  0.01894765  0.41741042    -0.60830
C521        C  0.62475717  0.03365696  0.43067966     0.95940
C522        C  0.62932088  0.87360648  0.43357147     0.95720
N523        N  0.76355673  0.92257932  0.45543951    -0.06420
N524        N  0.79027135  0.90777573  0.44310679    -0.58930
N525        N  0.73320945  0.99540100  0.43412282    -0.04540
N526        N  0.73875926  0.01365933  0.40790948    -0.60180
N527        N  0.75842053  0.99679925  0.45498078    -0.06450
N528        N  0.78205782  0.01553957  0.44210568    -0.59200
N529        N  0.73891676  0.92090284  0.43381544    -0.04180
N530        N  0.74841794  0.90463528  0.40715473    -0.60270
Mn531      Mn  0.69635316  0.95596783  0.43483078     1.18440
C532        C  0.78024911  0.89604044  0.41317805     0.98030
C533        C  0.76890465  0.02673258  0.41312504     0.98690
N534        N  0.63476516  0.91831579  0.53584901    -0.06470
N535        N  0.61743963  0.89083935  0.53713832    -0.62780
N536        N  0.65596769  0.99594108  0.55733039    -0.05270
N537        N  0.65425389  0.02332254  0.57486249    -0.63450
N538        N  0.63250811  0.99544788  0.53485971    -0.05970
N539        N  0.61426445  0.02267726  0.53655358    -0.63040
N540        N  0.65840584  0.91813722  0.55806141    -0.04870
N541        N  0.65759663  0.89023061  0.57507021    -0.63730
Mn542      Mn  0.63308135  0.95580373  0.49760850     1.10660
C543        C  0.63176000  0.87327318  0.56162718     0.99250
C544        C  0.62795014  0.03975814  0.56204076     0.99330
N545        N  0.75833965  0.99752927  0.53729430    -0.05980
N546        N  0.78273018  0.01567912  0.54981869    -0.61350
N547        N  0.73530602  0.92250513  0.55855996    -0.05300
N548        N  0.74137113  0.90543949  0.58526837    -0.58080
N549        N  0.76137597  0.92306730  0.53904437    -0.06610
N550        N  0.78613281  0.90671500  0.55370265    -0.60920
N551        N  0.73333330  0.99705884  0.55817343    -0.05600
N552        N  0.73995212  0.01531012  0.58430136    -0.58110
Mn553      Mn  0.76152115  0.95992193  0.49678626     1.20190
Mn554      Mn  0.69544412  0.95836439  0.55832005     1.10090
Cl555      Cl  0.69731172  0.95729500  0.49666665    -0.86080
C556        C  0.77053974  0.02711557  0.57888870     0.96260
C557        C  0.77289154  0.89544291  0.58260693     0.96050
C558        C  0.82915194  0.85022866  0.70902397     0.00450
C559        C  0.85156499  0.82399829  0.70715896     0.00450
N560        N  0.92088537  0.65835443  0.53236505    -0.06230
N561        N  0.90776628  0.63473999  0.55087960    -0.58350
N562        N  0.89987078  0.68263405  0.45664599    -0.05910
N563        N  0.87394399  0.67686084  0.43778461    -0.60480
N564        N  0.92011602  0.65710100  0.45705664    -0.05510
N565        N  0.90705379  0.63294429  0.43896532    -0.58330
N566        N  0.90055858  0.68385148  0.53181162    -0.05190
N567        N  0.87447314  0.67841461  0.55012376    -0.60830
C568        C  0.87874537  0.64780609  0.56206614     0.95940
C569        C  0.87844508  0.64601791  0.42654464     0.95720
N570        N  0.92341821  0.78108677  0.45372144    -0.06420
N571        N  0.92268692  0.79615091  0.42485547    -0.58930
N572        N  0.90124191  0.76016719  0.53146374    -0.04540
N573        N  0.88352481  0.76221276  0.55867195    -0.60180
N574        N  0.92385590  0.78332267  0.53099936    -0.06450
N575        N  0.92208551  0.80157998  0.55798793    -0.59200
N576        N  0.90066365  0.75801338  0.45451154    -0.04180
N577        N  0.88402347  0.75677918  0.42635051    -0.60270
Mn578      Mn  0.90015783  0.72138270  0.49373620     1.18440
C579        C  0.89802291  0.78069635  0.40800406     0.98030
C580        C  0.89674988  0.78821445  0.57513967     0.98690
N581        N  0.00202069  0.65626214  0.45648609    -0.06470
N582        N  0.01452689  0.63236997  0.43771896    -0.62780
N583        N  0.02453249  0.68091134  0.53137822    -0.05270
N584        N  0.05116289  0.67434300  0.54908051    -0.63450
N585        N  0.00378908  0.65577654  0.53156264    -0.05970
N586        N  0.01704330  0.63114160  0.54898750    -0.63040
N587        N  0.02202377  0.68190036  0.45586584    -0.04870
N588        N  0.04686676  0.67675992  0.43582610    -0.63730
Mn589      Mn  0.96160379  0.65540818  0.49452466     1.10660
C590        C  0.04222002  0.64601745  0.42425515     0.99250
C591        C  0.04643335  0.64351403  0.56031433     0.99330
N592        N  0.00053872  0.78195945  0.53081226    -0.05980
N593        N  0.00404308  0.80146820  0.55661398    -0.61350
N594        N  0.02297664  0.75750748  0.45594096    -0.05300
N595        N  0.04357839  0.76038419  0.43101114    -0.58080
N596        N  0.00067938  0.78103142  0.45529367    -0.06610
N597        N  0.00567880  0.80066577  0.42994316    -0.60920
N598        N  0.02270877  0.75823191  0.53162950    -0.05600
N599        N  0.04180199  0.76107364  0.55798830    -0.58110
Mn600      Mn  0.96198128  0.78328242  0.49260916     1.20190
Mn601      Mn  0.02338235  0.71974199  0.49388080     1.10090
Cl602      Cl  0.96182663  0.71971810  0.49386868    -0.86080
C603        C  0.03005307  0.78839944  0.57314095     0.96260
C604        C  0.03263636  0.78758794  0.41519523     0.96050
C605        C  0.86209830  0.83355422  0.28171352     0.00450
C606        C  0.83855413  0.85870298  0.28728321     0.00450
C607        C  0.06934233  0.83067318  0.70436543     0.00450
C608        C  0.09411532  0.85439473  0.70686488     0.00450
C609        C  0.84765223  0.08802996  0.70894860     0.00450
C610        C  0.82287647  0.06321011  0.70701319     0.00450
C611        C  0.10604041  0.85110218  0.28424664     0.00450
C612        C  0.07669670  0.83251698  0.28698970     0.00450
C613        C  0.06537839  0.08681433  0.29051209     0.00450
C614        C  0.09150227  0.06411207  0.29393227     0.00450
C615        C  0.06014026  0.08803346  0.71263001     0.00450
C616        C  0.07871079  0.05890693  0.71001699     0.00450
C617        C  0.32366210  0.75039785  0.60065403     0.00450
C618        C  0.35458460  0.75315982  0.61590118     0.00450
C619        C  0.17784309  0.36398959  0.61371083     0.00450
C620        C  0.17572868  0.34042372  0.58826519     0.00450
C621        C  0.74041155  0.35058525  0.37051708     0.00450
C622        C  0.74084977  0.32979624  0.39814713     0.00450
C623        C  0.34260106  0.17244832  0.39042436     0.00450
C624        C  0.36293206  0.17515181  0.36251129     0.00450
C625        C  0.34539636  0.75471108  0.40838376     0.00450
C626        C  0.37241710  0.75477190  0.38650632     0.00450
C627        C  0.16809918  0.32947087  0.39381432     0.00450
C628        C  0.17090790  0.35237619  0.36796328     0.00450
C629        C  0.34717147  0.16876243  0.59084793     0.00450
C630        C  0.36648149  0.17471955  0.61852791     0.00450
C631        C  0.74658045  0.32870781  0.61021422     0.00450
C632        C  0.74838361  0.35303420  0.63414230     0.00450
C633        C  0.25880967  0.09184460  0.10687526     0.00450
C634        C  0.25858790  0.05868652  0.11692899     0.00450
C635        C  0.67308431  0.09186907  0.10839727     0.00450
C636        C  0.66943932  0.06468293  0.12895180     0.00450
C637        C  0.32569191  0.34930663  0.78290963     0.00450
C638        C  0.35356432  0.32815575  0.77995532     0.00450
C639        C  0.58996837  0.35901947  0.78724835     0.00450
C640        C  0.56309728  0.33730686  0.78407163     0.00450
C641        C  0.56287576  0.74261527  0.36767504     0.00450
C642        C  0.58265400  0.74349014  0.39603599     0.00450
C643        C  0.56903484  0.16347818  0.41366302     0.00450
C644        C  0.55302755  0.16985243  0.38385544     0.00450
C645        C  0.57729507  0.56218774  0.78484913     0.00450
C646        C  0.55446600  0.58864958  0.78717087     0.00450
C647        C  0.07240250  0.66173455  0.13141803     0.00450
C648        C  0.09790551  0.66018400  0.10813379     0.00450
C649        C  0.09410150  0.24965052  0.10505204     0.00450
C650        C  0.07214224  0.25364576  0.13102184     0.00450
C651        C  0.33942950  0.55040779  0.79214778     0.00450
C652        C  0.35468430  0.58147187  0.79294122     0.00450
C653        C  0.16625825  0.58201753  0.39723442     0.00450
C654        C  0.16198681  0.55438686  0.37799000     0.00450
C655        C  0.74747600  0.59379474  0.39819316     0.00450
C656        C  0.74670278  0.56233895  0.38409095     0.00450
C657        C  0.75299068  0.56352328  0.62516609     0.00450
C658        C  0.75311275  0.58393597  0.59750179     0.00450
C659        C  0.60715838  0.17079005  0.62028073     0.00450
C660        C  0.58663558  0.17260373  0.64776874     0.00450
C661        C  0.58499364  0.74489089  0.60724820     0.00450
C662        C  0.56169286  0.74728577  0.63276437     0.00450
C663        C  0.17562099  0.59452060  0.60424418     0.00450
C664        C  0.17782648  0.56924660  0.62780157     0.00450
C665        C  0.96601271  0.75911060  0.81776355     0.00450
C666        C  0.96283283  0.77918307  0.78954331     0.00450
C667        C  0.75951729  0.95370942  0.82134896     0.00450
C668        C  0.78584206  0.95394594  0.79845407     0.00450
C669        C  0.77416399  0.74307077  0.99371844     0.00450
C670        C  0.75112799  0.76882041  0.98935351     0.00450
C671        C  0.45001534  0.63716521  0.69874050     0.00450
C672        C  0.44880531  0.66469125  0.67780575     0.00450
C673        C  0.65379647  0.46561677  0.71635796     0.00450
C674        C  0.68394668  0.46414013  0.69889889     0.00450
C675        C  0.63197285  0.65833954  0.50157260     0.00450
C676        C  0.65646055  0.63362295  0.50050786     0.00450
C677        C  0.60089434  0.35448808  0.20929230     0.00450
C678        C  0.57833791  0.32876107  0.20725581     0.00450
C679        C  0.56136036  0.58545920  0.21440901     0.00450
C680        C  0.58779248  0.56360936  0.20985691     0.00450
C681        C  0.35822364  0.58710084  0.21720517     0.00450
C682        C  0.33903739  0.55916399  0.21242414     0.00450
C683        C  0.34607670  0.36287472  0.21400773     0.00450
C684        C  0.37385003  0.34343056  0.20881111     0.00450
C685        C  0.51086544  0.73500621  0.66712897    -0.05890
C686        C  0.53715503  0.72173670  0.64798964     0.00030
C687        C  0.53750785  0.68645890  0.64634893    -0.08540
C688        C  0.50812848  0.66856772  0.65437254    -0.05910
C689        C  0.48158406  0.68312467  0.67197777     0.00020
C690        C  0.48591649  0.71633790  0.68172339    -0.08450
C691        C  0.46721449  0.73361440  0.70911552     0.61930
H692        H  0.50928609  0.76091922  0.67261352     0.12630
H693        H  0.50709047  0.64253480  0.64877358     0.12640
C694        C  0.56853628  0.66607025  0.64248243     0.62170
F695        F  0.45437848  0.76312925  0.69769114    -0.23000
F696        F  0.48910104  0.74103668  0.73436970    -0.20330
F697        F  0.44233642  0.71474830  0.72217448    -0.20010
F698        F  0.59683482  0.68503796  0.64444285    -0.20060
F699        F  0.56735384  0.64896460  0.61299520    -0.20380
F700        F  0.57036609  0.64330979  0.66789885    -0.23060
C701        C  0.62916436  0.71356402  0.57921857    -0.05890
C702        C  0.59475755  0.71614921  0.58553808     0.00030
C703        C  0.57312749  0.69886054  0.56384971    -0.08540
C704        C  0.58698411  0.67656615  0.54097376    -0.05910
C705        C  0.62090579  0.67625261  0.53268517     0.00020
C706        C  0.64180995  0.69782105  0.55083389    -0.08450
C707        C  0.67571632  0.70780199  0.53845283     0.61930
H708        H  0.64596665  0.72782501  0.59436846     0.12630
H709        H  0.57025085  0.66070531  0.52825206     0.12640
C710        C  0.53595100  0.70413667  0.56086756     0.62170
F711        F  0.67238952  0.72328276  0.50826127    -0.23000
F712        F  0.69557851  0.68063504  0.53492895    -0.20330
F713        F  0.69158596  0.72949881  0.55973928    -0.20010
F714        F  0.52821322  0.71181885  0.52843735    -0.20060
F715        F  0.52408556  0.72945328  0.58006256    -0.20380
F716        F  0.51959003  0.67541313  0.56926119    -0.23060
C717        C  0.69526119  0.60717773  0.58619729    -0.05890
C718        C  0.72362444  0.59000210  0.57521634     0.00030
C719        C  0.72368581  0.57972802  0.54173459    -0.08540
C720        C  0.70025441  0.59283611  0.51988040    -0.05910
C721        C  0.67439006  0.61458117  0.52918517     0.00020
C722        C  0.66891007  0.61579650  0.56408666    -0.08450
C723        C  0.63483135  0.61623231  0.57905116     0.61930
H724        H  0.69227995  0.61117473  0.61248072     0.12630
H725        H  0.70264022  0.58463263  0.49466805     0.12640
C726        C  0.74605350  0.55360609  0.52682812     0.62170
F727        F  0.63144033  0.58973679  0.60031290    -0.23000
F728        F  0.61036844  0.61300400  0.55531579    -0.20330
F729        F  0.63071470  0.64474454  0.59713238    -0.20010
F730        F  0.76708327  0.53877934  0.54882657    -0.20060
F731        F  0.76461389  0.56773143  0.50245866    -0.20380
F732        F  0.72678279  0.52900372  0.51277721    -0.23060
C733        C  0.72916221  0.54569972  0.67844879    -0.05890
C734        C  0.72423679  0.54684296  0.64363589     0.00030
C735        C  0.70033069  0.52382009  0.63056013    -0.08540
C736        C  0.68342094  0.50296720  0.65270528    -0.05910
C737        C  0.69582849  0.49628745  0.68434323     0.00020
C738        C  0.72129614  0.51747614  0.69703761    -0.08450
C739        C  0.74668623  0.50874863  0.72424928     0.61930
H740        H  0.74647146  0.56250881  0.68977532     0.12630
H741        H  0.66366922  0.48726528  0.64368502     0.12640
C742        C  0.69518761  0.51604057  0.59429630     0.62170
F743        F  0.77797090  0.50669861  0.71063836    -0.23000
F744        F  0.74000247  0.47917086  0.73964207    -0.20330
F745        F  0.74922059  0.53301890  0.74802139    -0.20010
F746        F  0.72530437  0.51058721  0.57996076    -0.20060
F747        F  0.67813597  0.54101914  0.57884862    -0.20380
F748        F  0.67693870  0.48749164  0.58924160    -0.23060
C749        C  0.68655387  0.59586254  0.41852733    -0.05890
C750        C  0.71806308  0.61103585  0.41552654     0.00030
C751        C  0.72263214  0.64041326  0.43468498    -0.08540
C752        C  0.70239542  0.64592150  0.46211781    -0.05910
C753        C  0.67320009  0.62810849  0.46758155     0.00020
C754        C  0.66474619  0.60279764  0.44489682    -0.08450
C755        C  0.63492025  0.58044214  0.44907063     0.61930
H756        H  0.67869793  0.57710583  0.40166397     0.12630
H757        H  0.70886530  0.66563687  0.47897654     0.12640
C758        C  0.74428735  0.66925021  0.42430345     0.62170
F759        F  0.64360892  0.54802384  0.44289750    -0.23000
F760        F  0.61056926  0.58961897  0.42681643    -0.20330
F761        F  0.62226929  0.58135367  0.48061494    -0.20010
F762        F  0.74693483  0.67028119  0.39043877    -0.20060
F763        F  0.77519843  0.66754765  0.43887742    -0.20380
F764        F  0.73031707  0.69894412  0.43389473    -0.23060
C765        C  0.37768162  0.58503290  0.73273916    -0.05890
C766        C  0.37214105  0.59981058  0.76409107     0.00030
C767        C  0.38898063  0.63071256  0.76950009    -0.08540
C768        C  0.41621075  0.63859270  0.74970958    -0.05910
C769        C  0.42117940  0.62432381  0.71840120     0.00020
C770        C  0.40084831  0.59718074  0.70944017    -0.08450
C771        C  0.39925736  0.58305227  0.67470856     0.61930
H772        H  0.36182693  0.56606202  0.72397447     0.12630
H773        H  0.43069653  0.65987471  0.75673700     0.12640
C774        C  0.37701557  0.65832826  0.79266957     0.62170
F775        F  0.41442848  0.55251144  0.67412612    -0.23000
F776        F  0.41389226  0.60343642  0.65179857    -0.20330
F777        F  0.36655137  0.57920668  0.66500486    -0.20010
F778        F  0.39455495  0.65860678  0.82192758    -0.20060
F779        F  0.34362209  0.65575502  0.79848666    -0.20380
F780        F  0.38157442  0.68922112  0.77923325    -0.23060
C781        C  0.62383434  0.55306854  0.74766694    -0.05890
C782        C  0.59043207  0.54647497  0.75318388     0.00030
C783        C  0.57739243  0.51775232  0.73665606    -0.08540
C784        C  0.59934435  0.49696634  0.71887514    -0.05910
C785        C  0.63406603  0.49790270  0.72360243     0.00020
C786        C  0.64557628  0.52659175  0.74124616    -0.08450
C787        C  0.67542339  0.52783676  0.76329890     0.61930
H788        H  0.63394504  0.57516648  0.75915201     0.12630
H789        H  0.58865363  0.47678815  0.70538815     0.12640
C790        C  0.54148983  0.50652648  0.73678661     0.62170
F791        F  0.66644362  0.53498425  0.79547490    -0.23000
F792        F  0.69517617  0.55331983  0.75263385    -0.20330
F793        F  0.69133379  0.49808072  0.76455852    -0.20010
F794        F  0.52875865  0.50934935  0.70520489    -0.20060
F795        F  0.52218322  0.52459494  0.75813067    -0.20380
F796        F  0.53938510  0.47359842  0.74558032    -0.23060
C797        C  0.52687280  0.58891194  0.72942716    -0.05890
C798        C  0.53527905  0.60630086  0.75854332     0.00030
C799        C  0.52096145  0.63908995  0.76059045    -0.08540
C800        C  0.49424549  0.64762941  0.73997730    -0.05910
C801        C  0.48257702  0.62739191  0.71479696     0.00020
C802        C  0.50097924  0.59851960  0.70768884    -0.08450
C803        C  0.49450817  0.57686179  0.67786485     0.61930
H804        H  0.54059202  0.56766274  0.72270821     0.12630
H805        H  0.48201793  0.67106257  0.74346516     0.12640
C806        C  0.53450939  0.66797179  0.78038267     0.62170
F807        F  0.52417438  0.56917646  0.66269196    -0.23000
F808        F  0.47471982  0.59199371  0.65461296    -0.20330
F809        F  0.47943952  0.54803651  0.68793887    -0.20010
F810        F  0.56859059  0.66745419  0.78049476    -0.20060
F811        F  0.52087170  0.66813214  0.81155201    -0.20380
F812        F  0.52615778  0.69801381  0.76640930    -0.23060
C813        C  0.57253116  0.69620448  0.43672444    -0.05890
C814        C  0.59409248  0.71317223  0.41541949     0.00030
C815        C  0.62819272  0.70515031  0.41874790    -0.08540
C816        C  0.63941247  0.69123281  0.44854195    -0.05910
C817        C  0.61820827  0.67344240  0.46947477     0.00020
C818        C  0.58427066  0.67239654  0.45949722    -0.08450
C819        C  0.56042380  0.64494385  0.46809065     0.61930
H820        H  0.54636950  0.70032502  0.43560063     0.12630
H821        H  0.66526838  0.69334102  0.45415614     0.12640
C822        C  0.65256586  0.70558337  0.39041021     0.62170
F823        F  0.53288857  0.65772802  0.48372166    -0.23000
F824        F  0.57466517  0.62107450  0.48781114    -0.20330
F825        F  0.55011039  0.62972897  0.43919128    -0.20010
F826        F  0.68072277  0.72299626  0.39905208    -0.20060
F827        F  0.63914523  0.71913247  0.36215163    -0.20380
F828        F  0.66179013  0.67345878  0.38329659    -0.23060
C829        C  0.59974065  0.38711074  0.73013391    -0.05890
C830        C  0.61132284  0.37710396  0.76136886     0.00030
C831        C  0.64234297  0.39110018  0.77109798    -0.08540
C832        C  0.65173944  0.42216533  0.75906920    -0.05910
C833        C  0.63780753  0.43482641  0.73008447     0.00020
C834        C  0.61320759  0.41504271  0.71355606    -0.08450
C835        C  0.60285464  0.42000046  0.67777938     0.61930
H836        H  0.58124272  0.37241481  0.71785656     0.12630
H837        H  0.67362639  0.43398608  0.76923643     0.12640
C838        C  0.66991898  0.37052496  0.78605135     0.62170
F839        F  0.56952500  0.42748512  0.67610713    -0.23000
F840        F  0.60833991  0.39112207  0.66035000    -0.20330
F841        F  0.62021146  0.44487884  0.66238006    -0.20010
F842        F  0.66254311  0.33725031  0.78467156    -0.20060
F843        F  0.67605359  0.38033191  0.81821210    -0.20380
F844        F  0.69871322  0.37482047  0.76813111    -0.23060
C845        C  0.72858090  0.40961756  0.63492495    -0.05890
C846        C  0.72122793  0.37701866  0.64256972     0.00030
C847        C  0.69712312  0.37168892  0.66704552    -0.08540
C848        C  0.68675304  0.39902631  0.68669876    -0.05910
C849        C  0.69961962  0.43180487  0.68312973     0.00020
C850        C  0.72583529  0.43371454  0.65934574    -0.08450
C851        C  0.75873740  0.44980953  0.66688904     0.61930
H852        H  0.74595083  0.41392589  0.61510109     0.12630
H853        H  0.66993196  0.39286685  0.70547126     0.12640
C854        C  0.67824566  0.33919288  0.66856752     0.62170
F855        F  0.78481524  0.43589609  0.64994585    -0.23000
F856        F  0.76663707  0.44571622  0.69964511    -0.20330
F857        F  0.75768874  0.48195497  0.65751276    -0.20010
F858        F  0.69909646  0.31229428  0.66708744    -0.20060
F859        F  0.65670516  0.33748316  0.64198812    -0.20380
F860        F  0.65991721  0.33667215  0.69723747    -0.23060
C861        C  0.36258410  0.69930162  0.64307671    -0.05890
C862        C  0.37570002  0.72359188  0.62309393     0.00030
C863        C  0.40883310  0.72009746  0.61289785    -0.08540
C864        C  0.42844626  0.69542334  0.62786317    -0.05910
C865        C  0.41876073  0.67884323  0.65731535     0.00020
C866        C  0.38333786  0.68128168  0.66453506    -0.08450
C867        C  0.36696149  0.67579774  0.69740061     0.61930
H868        H  0.33605793  0.70003218  0.64693139     0.12630
H869        H  0.45316795  0.69198626  0.61840130     0.12640
C870        C  0.42373180  0.74220070  0.58668947     0.62170
F871        F  0.33788956  0.69343745  0.70181124    -0.23000
F872        F  0.38790326  0.68722733  0.72103650    -0.20330
F873        F  0.35805315  0.64351310  0.70104048    -0.20010
F874        F  0.43411955  0.77142407  0.60102658    -0.20060
F875        F  0.40075878  0.74897487  0.56214240    -0.20380
F876        F  0.45075337  0.72735948  0.57190093    -0.23060
C877        C  0.82356092  0.03600202  0.76604520    -0.05890
C878        C  0.81027813  0.03803782  0.73352990     0.00030
C879        C  0.78518920  0.01351448  0.72607149    -0.08540
C880        C  0.78271712  0.98538686  0.74614632    -0.05910
C881        C  0.79325096  0.98529557  0.77914958     0.00020
C882        C  0.81246047  0.01266929  0.79000727    -0.08450
C883        C  0.82296280  0.01770493  0.82576665     0.61930
H884        H  0.84332126  0.05182442  0.77326986     0.12630
H885        H  0.76854172  0.96443540  0.73717590     0.12640
C886        C  0.75592347  0.01834095  0.70227864     0.62170
F887        F  0.85632959  0.02533197  0.82752065    -0.23000
F888        F  0.81761671  0.99026840  0.84517671    -0.20330
F889        F  0.80500861  0.04356094  0.83892361    -0.20010
F890        F  0.76275649  0.00660845  0.67115109    -0.20060
F891        F  0.74670137  0.05104556  0.70144353    -0.20380
F892        F  0.72818884  0.00121968  0.71231289    -0.23060
C893        C  0.01182705  0.81510706  0.71812306    -0.05890
C894        C  0.04420680  0.82023438  0.73027499     0.00030
C895        C  0.05028325  0.80989499  0.76339730    -0.08540
C896        C  0.02289955  0.79976789  0.78283764    -0.05910
C897        C  0.99261278  0.78930367  0.76845379     0.00020
C898        C  0.98980683  0.79384067  0.73374227    -0.08450
C899        C  0.96738033  0.77426175  0.71084137     0.61930
H900        H  0.00506381  0.82317428  0.69355852     0.12630
H901        H  0.02611956  0.79915850  0.80907353     0.12640
C902        C  0.08410053  0.80608839  0.77911393     0.62170
F903        F  0.98361933  0.76682569  0.68170854    -0.23000
F904        F  0.94006872  0.79278469  0.70305198    -0.20330
F905        F  0.95788558  0.74464241  0.72428638    -0.20010
F906        F  0.08789750  0.82909588  0.80411058    -0.20060
F907        F  0.10964520  0.80917254  0.75713137    -0.20380
F908        F  0.08661705  0.77468246  0.79217577    -0.23060
C909        C  0.09684661  0.62634960  0.43898864    -0.05890
C910        C  0.07214802  0.62741160  0.41463930     0.00030
C911        C  0.08144133  0.62238239  0.38143087    -0.08540
C912        C  0.11441023  0.61244820  0.37468938    -0.05910
C913        C  0.13767331  0.60693336  0.40049922     0.00020
C914        C  0.13008447  0.62162712  0.43088911    -0.08450
C915        C  0.15390518  0.64597422  0.44576286     0.61930
H916        H  0.09132150  0.63648675  0.46306337     0.12630
H917        H  0.12157993  0.60726063  0.34961632     0.12640
C918        C  0.05660030  0.62730340  0.35377702     0.62170
F919        F  0.13733864  0.67278521  0.45910024    -0.23000
F920        F  0.17418861  0.65894029  0.42180731    -0.20330
F921        F  0.17213700  0.63034138  0.46986449    -0.20010
F922        F  0.06984469  0.61940238  0.32331004    -0.20060
F923        F  0.04650708  0.65993373  0.35307535    -0.20380
F924        F  0.02935232  0.60738512  0.35903234    -0.23060
C925        C  0.82205276  0.64894159  0.58493527    -0.05890
C926        C  0.84949950  0.62961266  0.57549643     0.00030
C927        C  0.84553047  0.59505327  0.57382142    -0.08540
C928        C  0.81374256  0.58172497  0.57881936    -0.05910
C929        C  0.78568277  0.60087131  0.58757841     0.00020
C930        C  0.79033681  0.63553172  0.59039612    -0.08450
C931        C  0.76176356  0.65915103  0.59599672     0.61930
H932        H  0.82521099  0.67542820  0.58639693     0.12630
H933        H  0.81135563  0.55561057  0.57641859     0.12640
C934        C  0.87445994  0.57192668  0.56740481     0.62170
F935        F  0.77233019  0.69123929  0.60139875    -0.23000
F936        F  0.74304983  0.65000531  0.62278536    -0.20330
F937        F  0.74223499  0.65904428  0.56812790    -0.20010
F938        F  0.89940814  0.57798717  0.59016072    -0.20060
F939        F  0.88638440  0.57626419  0.53588085    -0.20380
F940        F  0.86550413  0.53917539  0.57020646    -0.23060
C941        C  0.09028327  0.63942752  0.60282588    -0.05890
C942        C  0.07474347  0.62489943  0.57535814     0.00030
C943        C  0.09194854  0.59991367  0.55789637    -0.08540
C944        C  0.12463730  0.59150375  0.56774544    -0.05910
C945        C  0.14035030  0.60600793  0.59544279     0.00020
C946        C  0.12280288  0.63116832  0.61277529    -0.08450
C947        C  0.13762427  0.65248731  0.63980639     0.61930
H948        H  0.07763780  0.65948553  0.61532728     0.12630
H949        H  0.13837089  0.57329233  0.55379680     0.12640
C950        C  0.07601397  0.58275664  0.52852604     0.62170
F951        F  0.13396982  0.68541245  0.63146180    -0.23000
F952        F  0.17086632  0.64690799  0.64461575    -0.20330
F953        F  0.12103296  0.64680280  0.66902669    -0.20010
F954        F  0.06697117  0.60558695  0.50499296    -0.20060
F955        F  0.04792683  0.56629448  0.53861953    -0.20380
F956        F  0.09715245  0.56015053  0.51397332    -0.23060
C957        C  0.83423528  0.63279509  0.38598438    -0.05890
C958        C  0.84868113  0.62686725  0.41697677     0.00030
C959        C  0.82951763  0.61166067  0.44175774    -0.08540
C960        C  0.79650364  0.60299374  0.43473283    -0.05910
C961        C  0.78187431  0.60810622  0.40365209     0.00020
C962        C  0.80121052  0.62376385  0.37869569    -0.08450
C963        C  0.78805452  0.63395308  0.34501639     0.61930
H964        H  0.84839835  0.64624041  0.36774229     0.12630
H965        H  0.78130191  0.59296085  0.45387965     0.12640
C966        C  0.84387399  0.60576125  0.47596248     0.62170
F967        F  0.79057065  0.66785660  0.34180640    -0.23000
F968        F  0.75535980  0.62522213  0.33999421    -0.20330
F969        F  0.80705804  0.61970057  0.32060616    -0.20010
F970        F  0.85158647  0.63551297  0.49082730    -0.20060
F971        F  0.87211797  0.58669190  0.47326942    -0.20380
F972        F  0.82221026  0.58938846  0.49634413    -0.23060
C973        C  0.05858979  0.77657243  0.36132848    -0.05890
C974        C  0.04681485  0.79976022  0.38422467     0.00030
C975        C  0.04877127  0.83370239  0.37699862    -0.08540
C976        C  0.05836719  0.84289153  0.34527678    -0.05910
C977        C  0.06797038  0.81979877  0.32101552     0.00020
C978        C  0.07037727  0.78612560  0.33021680    -0.08450
C979        C  0.08601825  0.75941317  0.30930914     0.61930
H980        H  0.05863286  0.75059233  0.36777607     0.12630
H981        H  0.05661159  0.86851481  0.33873461     0.12640
C982        C  0.04108307  0.86036275  0.40234270     0.62170
F983        F  0.11131066  0.74462706  0.32712531    -0.23000
F984        F  0.06242556  0.73578519  0.30195874    -0.20330
F985        F  0.09939037  0.77118801  0.28034305    -0.20010
F986        F  0.05718561  0.85344291  0.43178129    -0.20060
F987        F  0.00736530  0.86210797  0.40763959    -0.20380
F988        F  0.05155015  0.89116951  0.39197770    -0.23060
C989        C  0.05168318  0.77586647  0.62871505    -0.05890
C990        C  0.04136180  0.79979634  0.60581362     0.00030
C991        C  0.04095073  0.83345344  0.61499628    -0.08540
C992        C  0.04875978  0.84155728  0.64762939    -0.05910
C993        C  0.06123450  0.81815577  0.67016129     0.00020
C994        C  0.06198676  0.78433185  0.66078369    -0.08450
C995        C  0.07227191  0.75598377  0.68314447     0.61930
H996        H  0.05144805  0.75004278  0.62157820     0.12630
H997        H  0.04528439  0.86668832  0.65595388     0.12640
C998        C  0.03416493  0.86104787  0.59043712     0.62170
F999        F  0.04509977  0.73621518  0.68917175    -0.23000
F1000       F  0.08515502  0.76611820  0.71300219    -0.20330
F1001       F  0.09610559  0.73707866  0.66760387    -0.20010
F1002       F  0.00130799  0.86113877  0.58104665    -0.20060
F1003       F  0.05380886  0.85686318  0.56285957    -0.20380
F1004       F  0.04119138  0.89177061  0.60372554    -0.23060
C1005       C  0.85929795  0.77922005  0.35927344    -0.05890
C1006       C  0.89070427  0.78617864  0.37250070     0.00030
C1007       C  0.91532344  0.79760044  0.35088927    -0.08540
C1008       C  0.90545048  0.81295533  0.32137815    -0.05910
C1009       C  0.87224740  0.81222297  0.31086216     0.00020
C1010       C  0.85067473  0.78966808  0.32713671    -0.08450
C1011       C  0.82201766  0.77218594  0.30992292     0.61930
H1012       H  0.84175736  0.76523039  0.37375595     0.12630
H1013       H  0.92371099  0.82519381  0.30632496     0.12640
C1014       C  0.95162322  0.79091437  0.35731256     0.62170
F1015       F  0.83233361  0.74095930  0.30073088    -0.23000
F1016       F  0.81100636  0.78862776  0.28205017    -0.20330
F1017       F  0.79554434  0.76849767  0.33097884    -0.20010
F1018       F  0.95614513  0.76304816  0.37657952    -0.20060
F1019       F  0.96542215  0.81778971  0.37317135    -0.20380
F1020       F  0.96774093  0.78490350  0.32788352    -0.23060
C1021       C  0.89363182  0.83479349  0.75317141    -0.05890
C1022       C  0.87389673  0.81184640  0.73552036     0.00030
C1023       C  0.88072325  0.77747900  0.74104517    -0.08540
C1024       C  0.90788217  0.76829598  0.76121690    -0.05910
C1025       C  0.92945115  0.79121714  0.77597760     0.00020
C1026       C  0.92065012  0.82506063  0.77368211    -0.08450
C1027       C  0.93973253  0.85085669  0.79302713     0.61930
H1028       H  0.88968432  0.86076500  0.74893790     0.12630
H1029       H  0.91368156  0.74256341  0.76432620     0.12640
C1030       C  0.86162847  0.74956823  0.72439090     0.62170
F1031       F  0.92339283  0.88087506  0.79326911    -0.23000
F1032       F  0.97049774  0.85550050  0.77921982    -0.20330
F1033       F  0.94351850  0.84066731  0.82542559    -0.20010
F1034       F  0.86983883  0.74753113  0.69145361    -0.20060
F1035       F  0.82809621  0.75420884  0.72778237    -0.20380
F1036       F  0.86885718  0.71917810  0.73823103    -0.23060
C1037       C  0.83895192  0.90235975  0.73909010    -0.05890
C1038       C  0.82428171  0.87114706  0.73951541     0.00030
C1039       C  0.80329314  0.86377148  0.76662762    -0.08540
C1040       C  0.79188102  0.89003123  0.78680365    -0.05910
C1041       C  0.80378937  0.92285792  0.78403652     0.00020
C1042       C  0.83262590  0.92598718  0.76370876    -0.08450
C1043       C  0.86034507  0.95029852  0.77022614     0.61930
H1044       H  0.85760046  0.90747201  0.72060670     0.12630
H1045       H  0.77367719  0.88331919  0.80441003     0.12640
C1046       C  0.79179882  0.82945149  0.77584928     0.62170
F1047       F  0.89069455  0.93476801  0.76689509    -0.23000
F1048       F  0.85917827  0.96212883  0.80209849    -0.20330
F1049       F  0.85901712  0.97582696  0.74771078    -0.20010
F1050       F  0.80255384  0.80567055  0.75420931    -0.20060
F1051       F  0.75756743  0.82847767  0.77695557    -0.20380
F1052       F  0.80402360  0.82181414  0.80687613    -0.23060
C1053       C  0.89344718  0.82298618  0.66314971    -0.05890
C1054       C  0.86201764  0.81251428  0.67334789     0.00030
C1055       C  0.84154902  0.79542150  0.65016851    -0.08540
C1056       C  0.85399586  0.78876676  0.61853344    -0.05910
C1057       C  0.88580417  0.79850040  0.60875075     0.00020
C1058       C  0.90601840  0.81607911  0.63158909    -0.08450
C1059       C  0.94072809  0.82752916  0.62330578     0.61930
H1060       H  0.90775876  0.83805646  0.68009729     0.12630
H1061       H  0.83836621  0.77554287  0.60112742     0.12640
C1062       C  0.80700880  0.78269195  0.65688040     0.62170
F1063       F  0.95627588  0.84272711  0.64983013    -0.23000
F1064       F  0.93923401  0.85013263  0.59784247    -0.20330
F1065       F  0.95984946  0.80071500  0.61424609    -0.20010
F1066       F  0.78495539  0.79677826  0.63476185    -0.20060
F1067       F  0.79642383  0.78951301  0.68825840    -0.20380
F1068       F  0.80644946  0.74879956  0.65259781    -0.23060
C1069       C  0.58468646  0.83179395  0.42995964    -0.05890
C1070       C  0.61820334  0.83981996  0.42527350     0.00030
C1071       C  0.64051279  0.81484221  0.41559058    -0.08540
C1072       C  0.62790890  0.78379563  0.40756326    -0.05910
C1073       C  0.59426701  0.77590958  0.41004960     0.00020
C1074       C  0.57239592  0.79987600  0.42337536    -0.08450
C1075       C  0.53660276  0.79187585  0.43124921     0.61930
H1076       H  0.56809043  0.85082217  0.43881291     0.12630
H1077       H  0.64415303  0.76677922  0.39609414     0.12640
C1078       C  0.67752125  0.82056671  0.41336907     0.62170
F1079       F  0.52159551  0.81704931  0.44886856    -0.23000
F1080       F  0.53522979  0.76357535  0.45020045    -0.20330
F1081       F  0.51867326  0.78725673  0.40255744    -0.20010
F1082       F  0.68925830  0.83315109  0.44298382    -0.20060
F1083       F  0.68391418  0.84245357  0.38814895    -0.20380
F1084       F  0.69477180  0.79174149  0.40687889    -0.23060
C1085       C  0.64812650  0.09437580  0.57780125    -0.05890
C1086       C  0.62064056  0.07469754  0.57127348     0.00030
C1087       C  0.58878757  0.08779205  0.57723241    -0.08540
C1088       C  0.58609985  0.11936603  0.59222150    -0.05910
C1089       C  0.61405481  0.13764810  0.60312091     0.00020
C1090       C  0.64612546  0.12432945  0.59513606    -0.08450
C1091       C  0.67956337  0.13695750  0.60684016     0.61930
H1092       H  0.67229328  0.08470262  0.57125472     0.12630
H1093       H  0.56178230  0.12951365  0.59663513     0.12640
C1094       C  0.55796748  0.06839558  0.56828942     0.62170
F1095       F  0.70001490  0.11086391  0.61535843    -0.23000
F1096       F  0.67711229  0.15603897  0.63448513    -0.20330
F1097       F  0.69489997  0.15406688  0.58177541    -0.20010
F1098       F  0.55820635  0.03843535  0.58461068    -0.20060
F1099       F  0.55716769  0.06287823  0.53457358    -0.20380
F1100       F  0.52933927  0.08509811  0.57686848    -0.23060
C1101       C  0.57719693  0.07012064  0.42757448    -0.05890
C1102       C  0.61106686  0.06591370  0.42190190     0.00030
C1103       C  0.63084355  0.09326227  0.41363791    -0.08540
C1104       C  0.61586032  0.12435162  0.41257009    -0.05910
C1105       C  0.58199994  0.12914168  0.41932056     0.00020
C1106       C  0.56206398  0.10103677  0.42638924    -0.08450
C1107       C  0.52533439  0.10131252  0.43371673     0.61930
H1108       H  0.56225421  0.04878630  0.43381683     0.12630
H1109       H  0.63056559  0.14507998  0.40498064     0.12640
C1110       C  0.66762418  0.09015885  0.40693112     0.62170
F1111       F  0.50915126  0.08009896  0.41228718    -0.23000
F1112       F  0.51154145  0.13208594  0.43067199    -0.20330
F1113       F  0.52009232  0.09024484  0.46555889    -0.20010
F1114       F  0.67271717  0.06952998  0.38018197    -0.20060
F1115       F  0.68352188  0.07752444  0.43450330    -0.20380
F1116       F  0.68184098  0.12034792  0.39966201    -0.23060
C1117       C  0.63513521  0.82568274  0.60037911    -0.05890
C1118       C  0.62153548  0.83911890  0.57135669     0.00030
C1119       C  0.59964884  0.81909292  0.55213782    -0.08540
C1120       C  0.58932162  0.78858128  0.56479381    -0.05910
C1121       C  0.60105924  0.77634807  0.59493168     0.00020
C1122       C  0.62617777  0.79420195  0.61196882    -0.08450
C1123       C  0.64566585  0.78102042  0.64113998     0.61930
H1124       H  0.65337606  0.83976795  0.61417650     0.12630
H1125       H  0.57121821  0.77397759  0.55142317     0.12640
C1126       C  0.58851992  0.82826384  0.51756873     0.62170
F1127       F  0.67858137  0.77818563  0.63229574    -0.23000
F1128       F  0.63498158  0.75045569  0.65157434    -0.20330
F1129       F  0.64352279  0.80302500  0.66712832    -0.20010
F1130       F  0.61613714  0.83524303  0.49892233    -0.20060
F1131       F  0.56743790  0.85515892  0.51843939    -0.20380
F1132       F  0.57183043  0.80268685  0.50207145    -0.23060
C1133       C  0.83050806  0.89596986  0.37606804    -0.05890
C1134       C  0.80159362  0.88005877  0.38726009     0.00030
C1135       C  0.78993576  0.85269627  0.36877623    -0.08540
C1136       C  0.80315827  0.84633792  0.33728820    -0.05910
C1137       C  0.82908840  0.86484305  0.32363151     0.00020
C1138       C  0.84513629  0.88801369  0.34497502    -0.08450
C1139       C  0.87664030  0.90519213  0.33459412     0.61930
H1140       H  0.84024196  0.91620980  0.39066452     0.12630
H1141       H  0.79112930  0.82806970  0.32212380     0.12640
C1142       C  0.76303691  0.82964176  0.38056574     0.62170
F1143       F  0.87026445  0.92485549  0.30753058    -0.23000
F1144       F  0.90049488  0.88228768  0.32647905    -0.20330
F1145       F  0.88955980  0.92461521  0.35970042    -0.20010
F1146       F  0.73732723  0.82991755  0.35790641    -0.20060
F1147       F  0.75107750  0.83766600  0.41140964    -0.20380
F1148       F  0.77555850  0.79801445  0.38267553    -0.23060
C1149       C  0.77921126  0.06912163  0.62197124    -0.05890
C1150       C  0.79037635  0.04004941  0.60691430     0.00030
C1151       C  0.81321433  0.01964430  0.62402702    -0.08540
C1152       C  0.82299314  0.02841409  0.65630967    -0.05910
C1153       C  0.81015578  0.05646302  0.67239740     0.00020
C1154       C  0.78849389  0.07783970  0.65438422    -0.08450
C1155       C  0.77264545  0.10882765  0.66832910     0.61930
H1156       H  0.76124833  0.08423131  0.60892911     0.12630
H1157       H  0.83998141  0.01277226  0.66995079     0.12640
C1158       C  0.82493700  0.98724179  0.60948499     0.62170
F1159       F  0.78180712  0.13564970  0.64944078    -0.23000
F1160       F  0.78114156  0.11475508  0.70076107    -0.20330
F1161       F  0.73859854  0.10592488  0.66691327    -0.20010
F1162       F  0.84048745  0.99293480  0.57970773    -0.20060
F1163       F  0.79809269  0.96664370  0.60446577    -0.20380
F1164       F  0.84714735  0.97121875  0.63014285    -0.23060
C1165       C  0.76864815  0.87201286  0.63847277    -0.05890
C1166       C  0.78995444  0.88190113  0.61284753     0.00030
C1167       C  0.82434435  0.88329921  0.61969740    -0.08540
C1168       C  0.83550404  0.87615199  0.65220703    -0.05910
C1169       C  0.81417464  0.86447745  0.67728155     0.00020
C1170       C  0.77959445  0.86494312  0.67066994    -0.08450
C1171       C  0.75355240  0.86031824  0.69723561     0.61930
H1172       H  0.74237804  0.87081988  0.63337737     0.12630
H1173       H  0.86145771  0.87883550  0.65816255     0.12640
C1174       C  0.84933722  0.89061326  0.59288813     0.62170
F1175       F  0.72160084  0.86135225  0.68466754    -0.23000
F1176       F  0.75618895  0.88547137  0.72013542    -0.20330
F1177       F  0.75730515  0.83028587  0.71244935    -0.20010
F1178       F  0.84475756  0.92200173  0.58057468    -0.20060
F1179       F  0.84566283  0.86793671  0.56755374    -0.20380
F1180       F  0.88152590  0.88851667  0.60455413    -0.23060
C1181       C  0.79925089  0.07614610  0.33968171    -0.05890
C1182       C  0.81570008  0.05171287  0.32073757     0.00030
C1183       C  0.81716154  0.01922917  0.33420311    -0.08540
C1184       C  0.80229987  0.01276917  0.36487854    -0.05910
C1185       C  0.78845949  0.03760189  0.38427587     0.00020
C1186       C  0.78731146  0.07001418  0.37181266    -0.08450
C1187       C  0.77437212  0.09795494  0.39293781     0.61930
H1188       H  0.79700638  0.10071484  0.32960114     0.12630
H1189       H  0.80176095  0.98762934  0.37414373     0.12640
C1190       C  0.83402279  0.98982732  0.31885255     0.62170
F1191       F  0.77553422  0.12797557  0.37673621    -0.23000
F1192       F  0.79335041  0.10031454  0.42138649    -0.20330
F1193       F  0.74200835  0.09177918  0.40146095    -0.20010
F1194       F  0.85321666  0.97460718  0.34261575    -0.20060
F1195       F  0.85432921  0.99708878  0.29287055    -0.20380
F1196       F  0.81008233  0.96805779  0.30843285    -0.23060
C1197       C  0.81751802  0.27520769  0.41465342    -0.05890
C1198       C  0.84085042  0.29910387  0.42419005     0.00030
C1199       C  0.83121558  0.33256093  0.42621421    -0.08540
C1200       C  0.79773581  0.34028689  0.42163111    -0.05910
C1201       C  0.77431527  0.31701415  0.41030182     0.00020
C1202       C  0.78441251  0.28361430  0.40727559    -0.08450
C1203       C  0.76006337  0.25637086  0.39949824     0.61930
H1204       H  0.82521833  0.24961626  0.41392306     0.12630
H1205       H  0.79022678  0.36559170  0.42434197     0.12640
C1206       C  0.85633292  0.36053617  0.42945520     0.62170
F1207       F  0.77577535  0.22685626  0.39240483    -0.23000
F1208       F  0.74023990  0.26432288  0.37284537    -0.20330
F1209       F  0.74067312  0.25173227  0.42683821    -0.20010
F1210       F  0.88090885  0.35646591  0.40613027    -0.20060
F1211       F  0.87056469  0.36133052  0.46044593    -0.20380
F1212       F  0.84187482  0.39105487  0.42432009    -0.23060
C1213       C  0.13371311  0.29504515  0.58800920    -0.05890
C1214       C  0.14219163  0.32706337  0.57757557     0.00030
C1215       C  0.11789254  0.34557488  0.55994689    -0.08540
C1216       C  0.08630977  0.33194387  0.55511327    -0.05910
C1217       C  0.07764521  0.30049893  0.56657987     0.00020
C1218       C  0.10210568  0.28122708  0.58284839    -0.08450
C1219       C  0.09550982  0.24621722  0.59461618     0.61930
H1220       H  0.15158708  0.28123592  0.60189969     0.12630
H1221       H  0.06780950  0.34665772  0.54240079     0.12640
C1222       C  0.12266879  0.37970688  0.54563417     0.62170
F1223       F  0.12371320  0.23136462  0.60732733    -0.23000
F1224       F  0.08450498  0.22703557  0.56847172    -0.20330
F1225       F  0.07198701  0.24658470  0.61929353    -0.20010
F1226       F  0.11817582  0.37845891  0.51184076    -0.20060
F1227       F  0.15342165  0.39281847  0.55191656    -0.21340
F1228       F  0.09890592  0.40057868  0.55850157    -0.23060
C1229       C  0.83174718  0.28587685  0.60766864    -0.05890
C1230       C  0.84127347  0.29297851  0.57521612     0.00030
C1231       C  0.81726755  0.30575952  0.55298011    -0.08540
C1232       C  0.78705221  0.31712420  0.56557446    -0.05910
C1233       C  0.77852882  0.31265096  0.59880009     0.00020
C1234       C  0.79995605  0.29358134  0.61924955    -0.08450
C1235       C  0.79038731  0.27915073  0.65227368     0.61930
H1236       H  0.84904024  0.27347542  0.62405633     0.12630
H1237       H  0.76977704  0.32985345  0.54944847     0.12640
C1238       C  0.82270810  0.30659099  0.51606839     0.62170
F1239       F  0.79415251  0.24523103  0.65098825    -0.23000
F1240       F  0.75799845  0.28558352  0.66051807    -0.20330
F1241       F  0.81101964  0.29142895  0.67669319    -0.20010
F1242       F  0.83642573  0.27712577  0.50546625    -0.20060
F1243       F  0.84340010  0.33248558  0.50864450    -0.20380
F1244       F  0.79332578  0.31078438  0.49892391    -0.23060
C1245       C  0.08898230  0.27806784  0.40304197    -0.05890
C1246       C  0.06835069  0.30092343  0.41918781     0.00030
C1247       C  0.08042875  0.33303872  0.42621527    -0.08540
C1248       C  0.11227329  0.34101722  0.41584295    -0.05910
C1249       C  0.13352108  0.31797059  0.40087583     0.00020
C1250       C  0.12181950  0.28556038  0.39455965    -0.08450
C1251       C  0.14300164  0.25733623  0.38171198     0.61930
H1252       H  0.08004267  0.25331808  0.39877359     0.12630
H1253       H  0.12222702  0.36498951  0.42198028     0.12640
C1254       C  0.06130893  0.35847792  0.44626075     0.62170
F1255       F  0.14693475  0.23421556  0.40652177    -0.23000
F1256       F  0.17400197  0.26706678  0.37146441    -0.20330
F1257       F  0.12727707  0.24234580  0.35525821    -0.20010
F1258       F  0.05795833  0.34762788  0.47839012    -0.20060
F1259       F  0.03044023  0.36370356  0.43224034    -0.20380
F1260       F  0.07744605  0.38854159  0.44788602    -0.23060
C1261       C  0.88452712  0.09573837  0.38471074    -0.05890
C1262       C  0.87395068  0.12810388  0.39038278     0.00030
C1263       C  0.85696515  0.14512384  0.36464910    -0.08540
C1264       C  0.85453946  0.13056871  0.33322351    -0.05910
C1265       C  0.86578752  0.09844487  0.32706861     0.00020
C1266       C  0.88149954  0.08074259  0.35341593    -0.08450
C1267       C  0.89737227  0.04707335  0.35008181     0.61930
H1268       H  0.89784284  0.08290920  0.40416402     0.12630
H1269       H  0.84279835  0.14404432  0.31322255     0.12640
C1270       C  0.84192642  0.17913373  0.36937164     0.62170
F1271       F  0.92964858  0.04833613  0.36140473    -0.23000
F1272       F  0.89790583  0.03578565  0.31794971    -0.20330
F1273       F  0.88058024  0.02499467  0.36972630    -0.20010
F1274       F  0.86477754  0.20302760  0.36091012    -0.20060
F1275       F  0.83213917  0.18376424  0.40174489    -0.20380
F1276       F  0.81417951  0.18295209  0.34950573    -0.23060
C1277       C  0.06565491  0.13595935  0.62936835    -0.05890
C1278       C  0.03488680  0.12831759  0.61537100     0.00030
C1279       C  0.01193968  0.11030073  0.63444572    -0.08540
C1280       C  0.02094780  0.09965100  0.66639679    -0.05910
C1281       C  0.05227517  0.10589826  0.68028312     0.00020
C1282       C  0.07532960  0.12460004  0.66092632    -0.08450
C1283       C  0.10969431  0.13517891  0.67190058     0.61930
H1284       H  0.08238548  0.15151424  0.61545114     0.12630
H1285       H  0.00374192  0.08492787  0.68045017     0.12640
C1286       C  0.97797348  0.10222574  0.62087391     0.62170
F1287       F  0.13219250  0.12778735  0.64736469    -0.23000
F1288       F  0.12016578  0.12006736  0.70046008    -0.20330
F1289       F  0.11006843  0.16898774  0.67672911    -0.20010
F1290       F  0.98157422  0.08387651  0.59230217    -0.20060
F1291       F  0.96106550  0.13106898  0.61390641    -0.20380
F1292       F  0.95926027  0.08409465  0.64291050    -0.23060
C1293       C  0.86444839  0.15157167  0.63901872    -0.05890
C1294       C  0.87698759  0.13126167  0.61365205     0.00030
C1295       C  0.87923105  0.09692295  0.61957238    -0.08540
C1296       C  0.87216653  0.08515191  0.65154752    -0.05910
C1297       C  0.85740168  0.10492618  0.67632160     0.00020
C1298       C  0.85439515  0.13933230  0.66990659    -0.08450
C1299       C  0.84238463  0.16500289  0.69440549     0.61930
H1300       H  0.86285657  0.17797760  0.63489319     0.12630
H1301       H  0.87794360  0.05981644  0.65754836     0.12640
C1302       C  0.88789797  0.07244839  0.59253074     0.62170
F1303       F  0.81764320  0.18387406  0.68009687    -0.23000
F1304       F  0.86839728  0.18556172  0.70290384    -0.20330
F1305       F  0.82987903  0.15162407  0.72275105    -0.20010
F1306       F  0.91937105  0.07795817  0.58095662    -0.20060
F1307       F  0.86549685  0.07563347  0.56677357    -0.20380
F1308       F  0.88665531  0.04018638  0.60361736    -0.23060
C1309       C  0.01898612  0.10248196  0.37252827    -0.05890
C1310       C  0.03771832  0.12808673  0.38645581     0.00030
C1311       C  0.06482262  0.14073630  0.36833216    -0.08540
C1312       C  0.07187070  0.12767661  0.33682278    -0.05910
C1313       C  0.05305782  0.10209176  0.32255690     0.00020
C1314       C  0.02574647  0.08960858  0.34079351    -0.08450
C1315       C  0.00109954  0.06479025  0.32757015     0.61930
H1316       H  0.99733288  0.09385871  0.38568017     0.12630
H1317       H  0.09256837  0.13729662  0.32300515     0.12640
C1318       C  0.08591667  0.16856585  0.38192764     0.62170
F1319       F  0.97073660  0.07983078  0.32583487    -0.23000
F1320       F  0.99869284  0.03848378  0.34917771    -0.20330
F1321       F  0.00850884  0.05314482  0.29643563    -0.20010
F1322       F  0.09477965  0.16204156  0.41431445    -0.20060
F1323       F  0.06812899  0.19762059  0.38059586    -0.20380
F1324       F  0.11467584  0.17269117  0.36396175    -0.23060
C1325       C  0.29012096  0.83763732  0.61054756    -0.05890
C1326       C  0.28599300  0.84560296  0.57726046     0.00030
C1327       C  0.28245712  0.82007132  0.55397015    -0.08540
C1328       C  0.29451771  0.78888445  0.56248937    -0.05910
C1329       C  0.30379917  0.78141776  0.59508217     0.00020
C1330       C  0.29600293  0.80495978  0.62011326    -0.08450
C1331       C  0.29035991  0.79677806  0.65604292     0.61930
H1332       H  0.28760926  0.85674935  0.62916923     0.12630
H1333       H  0.29536936  0.76975099  0.54413861     0.12640
C1334       C  0.26176379  0.82466940  0.52292818     0.62170
F1335       F  0.31105775  0.81530917  0.67601389    -0.23000
F1336       F  0.29495091  0.76377845  0.66255476    -0.20330
F1337       F  0.25799877  0.80455766  0.66397442    -0.20010
F1338       F  0.27539700  0.84808926  0.50261639    -0.20060
F1339       F  0.23038595  0.83502949  0.53175174    -0.20380
F1340       F  0.25854385  0.79553226  0.50534782    -0.23060
C1341       C  0.28863554  0.09497872  0.40433445    -0.05890
C1342       C  0.30752684  0.07818155  0.42811804     0.00030
C1343       C  0.33778266  0.09220082  0.43891613    -0.08540
C1344       C  0.34808649  0.12191124  0.42458767    -0.05910
C1345       C  0.32935384  0.13906858  0.40092245     0.00020
C1346       C  0.29876865  0.12493723  0.39035246    -0.08450
C1347       C  0.27538853  0.13904044  0.36464536     0.61930
H1348       H  0.26536966  0.08442990  0.39616874     0.12630
H1349       H  0.37182324  0.13155752  0.43120186     0.12640
C1350       C  0.35932930  0.07658152  0.46549694     0.62170
F1351       F  0.26835641  0.11513109  0.34122752    -0.23000
F1352       F  0.28799960  0.16599735  0.34870391    -0.20330
F1353       F  0.24602393  0.14804090  0.37948983    -0.20010
F1354       F  0.36903217  0.04527341  0.45591067    -0.20060
F1355       F  0.34187481  0.07491686  0.49472267    -0.20380
F1356       F  0.38770397  0.09473650  0.47153267    -0.23060
C1357       C  0.34031084  0.07545003  0.57867286    -0.05890
C1358       C  0.30651551  0.07135879  0.58472719     0.00030
C1359       C  0.28705860  0.09868647  0.59427115    -0.08540
C1360       C  0.30187499  0.12962499  0.59591823    -0.05910
C1361       C  0.33503081  0.13422805  0.58743149     0.00020
C1362       C  0.35500475  0.10646633  0.57868437    -0.08450
C1363       C  0.39052950  0.10749581  0.56638528     0.61930
H1364       H  0.35509407  0.05427257  0.57143302     0.12630
H1365       H  0.28735931  0.15100269  0.60290021     0.12640
C1366       C  0.25081710  0.09566672  0.60177976     0.62170
F1367       F  0.41023469  0.08715856  0.58536801    -0.23000
F1368       F  0.40377478  0.13874277  0.56628078    -0.20330
F1369       F  0.39180901  0.09539728  0.53463494    -0.20010
F1370       F  0.24747949  0.07412025  0.62785580    -0.20060
F1371       F  0.23419664  0.08412284  0.57411001    -0.20380
F1372       F  0.23667029  0.12550149  0.61080396    -0.23060
C1373       C  0.32484635  0.83493508  0.45278215    -0.05890
C1374       C  0.30851104  0.85270844  0.42759336     0.00030
C1375       C  0.30404213  0.83807919  0.39618004    -0.08540
C1376       C  0.31534415  0.80575861  0.39163401    -0.05910
C1377       C  0.33177087  0.78798801  0.41685893     0.00020
C1378       C  0.33605592  0.80253258  0.44838209    -0.08450
C1379       C  0.34796682  0.78381498  0.47885991     0.61930
H1380       H  0.32855709  0.84630642  0.47670105     0.12630
H1381       H  0.31135855  0.79365010  0.36811699     0.12640
C1382       C  0.28838479  0.85627074  0.36725421     0.62170
F1383       F  0.36387829  0.80478297  0.50082130    -0.23000
F1384       F  0.36933675  0.75819735  0.47205155    -0.20330
F1385       F  0.32080875  0.77059936  0.49408789    -0.20010
F1386       F  0.30390555  0.88637696  0.36294592    -0.20060
F1387       F  0.25503921  0.86117235  0.37298236    -0.20380
F1388       F  0.29126500  0.83871894  0.33803324    -0.23060
C1389       C  0.10626292  0.03588478  0.38441880    -0.05890
C1390       C  0.13386321  0.05407621  0.39386643     0.00030
C1391       C  0.14607418  0.07833499  0.37186750    -0.08540
C1392       C  0.13156720  0.08129980  0.33996596    -0.05910
C1393       C  0.10679538  0.05939335  0.32855456     0.00020
C1394       C  0.09449944  0.03610447  0.35172266    -0.08450
C1395       C  0.07648906  0.00603080  0.34053730     0.61930
H1396       H  0.09742635  0.01741497  0.40152259     0.12630
H1397       H  0.13996551  0.10048439  0.32357425     0.12640
C1398       C  0.17343817  0.10162276  0.38260796     0.62170
F1399       F  0.06756425  0.98558642  0.36640464    -0.23000
F1400       F  0.09828607  0.98980129  0.32062129    -0.20330
F1401       F  0.04845030  0.01346549  0.32319349    -0.20010
F1402       F  0.20253345  0.08433807  0.38736574    -0.20060
F1403       F  0.16467090  0.11689555  0.41187247    -0.20380
F1404       F  0.17914039  0.12588474  0.35929401    -0.23060
C1405       C  0.10315686  0.89615454  0.66273081    -0.05890
C1406       C  0.11146215  0.86494057  0.67534833     0.00030
C1407       C  0.13111368  0.84364878  0.65531167    -0.08540
C1408       C  0.13849425  0.85312718  0.62266766    -0.05910
C1409       C  0.12901057  0.88384575  0.60982771     0.00020
C1410       C  0.11291627  0.90650207  0.63103694    -0.08450
C1411       C  0.10801735  0.94222464  0.62113766     0.61930
H1412       H  0.08851328  0.91246729  0.67796913     0.12630
H1413       H  0.15379529  0.83707951  0.60762430     0.12640
C1414       C  0.14641302  0.81159279  0.66702838     0.62170
F1415       F  0.09374074  0.96021265  0.64621805    -0.23000
F1416       F  0.08792125  0.94414490  0.59346323    -0.20330
F1417       F  0.13824165  0.95656092  0.61446363    -0.20010
F1418       F  0.13644639  0.78616237  0.64647241    -0.20060
F1419       F  0.13815455  0.80375315  0.69898818    -0.20380
F1420       F  0.18051805  0.81418250  0.66548697    -0.23060
C1421       C  0.12566779  0.05740266  0.67180199    -0.05890
C1422       C  0.09217269  0.05113557  0.67587356     0.00030
C1423       C  0.07421710  0.03609762  0.64925108    -0.08540
C1424       C  0.09052274  0.03074829  0.61871198    -0.05910
C1425       C  0.12417133  0.03867081  0.61447214     0.00020
C1426       C  0.14140781  0.05345264  0.64156228    -0.08450
C1427       C  0.17676511  0.06520894  0.63948998     0.61930
H1428       H  0.13987506  0.06551052  0.69307788     0.12630
H1429       H  0.07741345  0.01834668  0.59883918     0.12640
C1430       C  0.03919330  0.02275484  0.65243381     0.62170
F1431       F  0.18442639  0.08802549  0.66390397    -0.23000
F1432       F  0.18133682  0.08050084  0.60943989    -0.20330
F1433       F  0.19791978  0.03860562  0.64330391    -0.20010
F1434       F  0.01890120  0.03779959  0.62943649    -0.20060
F1435       F  0.02608582  0.02740912  0.68351703    -0.20380
F1436       F  0.03880488  0.98928826  0.64603444    -0.23060
C1437       C  0.12238980  0.90492334  0.36090035    -0.05890
C1438       C  0.13809685  0.88305433  0.38266767     0.00030
C1439       C  0.14534478  0.85064270  0.37158798    -0.08540
C1440       C  0.13613390  0.84110422  0.33912077    -0.05910
C1441       C  0.12004611  0.86313243  0.31724536     0.00020
C1442       C  0.11246727  0.89524577  0.32891227    -0.08450
C1443       C  0.09224708  0.91941784  0.30893756     0.61930
H1444       H  0.11801658  0.93010240  0.36895304     0.12630
H1445       H  0.14073329  0.81615156  0.33069296     0.12640
C1446       C  0.16255953  0.82632128  0.39431279     0.62170
F1447       F  0.07059489  0.93582821  0.32935102    -0.23000
F1448       F  0.07273963  0.90494046  0.28534237    -0.20330
F1449       F  0.11362498  0.94071270  0.29335939    -0.20010
F1450       F  0.14423474  0.82269550  0.42282874    -0.20060
F1451       F  0.19376497  0.83782128  0.40251840    -0.20380
F1452       F  0.16599554  0.79557337  0.37973827    -0.23060
C1453       C  0.39427366  0.84542140  0.37284902    -0.05890
C1454       C  0.38545841  0.84909707  0.33964451     0.00030
C1455       C  0.37256124  0.82198280  0.32166360    -0.08540
C1456       C  0.36950386  0.79161625  0.33807036    -0.05910
C1457       C  0.38007244  0.78750560  0.37107945     0.00020
C1458       C  0.39367265  0.81510858  0.38860174    -0.08450
C1459       C  0.41022412  0.81475211  0.42245299     0.61930
H1460       H  0.40396387  0.86643660  0.38647207     0.12630
H1461       H  0.35882291  0.77059792  0.32533308     0.12640
C1462       C  0.36302813  0.82454843  0.28544349     0.62170
F1463       F  0.44298098  0.82424882  0.41924685    -0.23000
F1464       F  0.40964439  0.78420421  0.43707888    -0.20330
F1465       F  0.39526468  0.83736096  0.44314459    -0.20010
F1466       F  0.39024080  0.83395881  0.26714381    -0.20060
F1467       F  0.33798504  0.84754166  0.28156267    -0.20380
F1468       F  0.35177602  0.79474037  0.27293156    -0.23060
C1469       C  0.50603237  0.09853569  0.34160604    -0.05890
C1470       C  0.53249930  0.07822435  0.33203927     0.00030
C1471       C  0.56512616  0.09087666  0.33375338    -0.08540
C1472       C  0.57003537  0.12212364  0.34815973    -0.05910
C1473       C  0.54399290  0.13989948  0.36298042     0.00020
C1474       C  0.51102438  0.12916341  0.35726129    -0.08450
C1475       C  0.48016040  0.14755555  0.36806672     0.61930
H1476       H  0.48096102  0.08993472  0.33762411     0.12630
H1477       H  0.59472121  0.13238268  0.34965153     0.12640
C1478       C  0.59478985  0.07121553  0.32186834     0.62170
F1479       F  0.46307690  0.12789689  0.38969583    -0.23000
F1480       F  0.46023009  0.15391511  0.34093378    -0.20330
F1481       F  0.48631574  0.17697635  0.38389090    -0.20010
F1482       F  0.59225737  0.06600457  0.28819249    -0.20060
F1483       F  0.59612465  0.04118076  0.33803128    -0.20380
F1484       F  0.62430810  0.08755218  0.32789146    -0.23060
C1485       C  0.39433276  0.12326459  0.36589216    -0.05890
C1486       C  0.37208830  0.14208932  0.34713660     0.00030
C1487       C  0.35775049  0.12730063  0.31823622    -0.08540
C1488       C  0.36698633  0.09469935  0.30990704    -0.05910
C1489       C  0.38786101  0.07556183  0.33013171     0.00020
C1490       C  0.40016783  0.08967199  0.35989598    -0.08450
C1491       C  0.41678426  0.06929637  0.38697340     0.61930
H1492       H  0.40511345  0.13480199  0.38739371     0.12630
H1493       H  0.35727861  0.08391299  0.28732543     0.12640
C1494       C  0.33396045  0.14396635  0.29416325     0.62170
F1495       F  0.41977564  0.08675435  0.41616610    -0.23000
F1496       F  0.44826782  0.05990667  0.37787226    -0.20330
F1497       F  0.39796488  0.04156502  0.39345304    -0.20010
F1498       F  0.32504923  0.17556129  0.30335816    -0.20060
F1499       F  0.30554366  0.12528008  0.29094668    -0.20380
F1500       F  0.34872367  0.14567894  0.26344767    -0.23060
C1501       C  0.51907288  0.81450066  0.32424178    -0.05890
C1502       C  0.54111273  0.84066253  0.33016625     0.00030
C1503       C  0.57462966  0.83234881  0.33715924    -0.08540
C1504       C  0.58273618  0.79898945  0.34440971    -0.05910
C1505       C  0.55846585  0.77391628  0.34539802     0.00020
C1506       C  0.53007742  0.78125054  0.32578112    -0.08450
C1507       C  0.52180560  0.75986016  0.29596228     0.61930
H1508       H  0.49527165  0.82022415  0.31315836     0.12630
H1509       H  0.60807498  0.79234662  0.34935297     0.12640
C1510       C  0.60152159  0.85844626  0.33745322     0.62170
F1511       F  0.49827104  0.77450274  0.27570664    -0.23000
F1512       F  0.50979851  0.72972034  0.30490456    -0.20330
F1513       F  0.55016049  0.75515159  0.27753782    -0.20010
F1514       F  0.59334256  0.88337245  0.35933795    -0.20060
F1515       F  0.60509633  0.87153270  0.30621285    -0.20380
F1516       F  0.63181900  0.84553982  0.34676564    -0.23060
C1517       C  0.59821770  0.05408260  0.18966086    -0.05890
C1518       C  0.57226459  0.04379985  0.16854255     0.00030
C1519       C  0.57756438  0.04367544  0.13400882    -0.08540
C1520       C  0.60899797  0.05285961  0.12236053    -0.05910
C1521       C  0.63584706  0.05967965  0.14389209     0.00020
C1522       C  0.63022140  0.06042918  0.17839736    -0.08450
C1523       C  0.65653661  0.06628478  0.20490657     0.61930
H1524       H  0.59424463  0.05498009  0.21610626     0.12630
H1525       H  0.61372785  0.05251054  0.09607854     0.12640
C1526       C  0.55148913  0.03193045  0.10955325     0.62170
F1527       F  0.64580382  0.09030564  0.22672417    -0.23000
F1528       F  0.68663615  0.07641624  0.19269605    -0.20330
F1529       F  0.66135300  0.03732032  0.22232564    -0.20010
F1530       F  0.52262260  0.04981311  0.11370111    -0.20060
F1531       F  0.54533129  0.99869642  0.11438103    -0.20380
F1532       F  0.56155923  0.03589442  0.07716948    -0.23060
C1533       C  0.31993898  0.99604473  0.14709482    -0.05890
C1534       C  0.34959780  0.01352616  0.14257807     0.00030
C1535       C  0.35094050  0.03491204  0.11490879    -0.08540
C1536       C  0.32042192  0.04629825  0.10110157    -0.05910
C1537       C  0.28999023  0.03679122  0.11540302     0.00020
C1538       C  0.29118645  0.00502381  0.12956568    -0.08450
C1539       C  0.26774224  0.97788824  0.11909785     0.61930
H1540       H  0.31966791  0.97430940  0.16266603     0.12630
H1541       H  0.32047554  0.06423629  0.08135770     0.12640
C1542       C  0.38370046  0.04431329  0.09977590     0.62170
F1543       F  0.24235232  0.98893919  0.09903608    -0.23000
F1544       F  0.25498561  0.96257121  0.14649222    -0.20330
F1545       F  0.28508730  0.95505060  0.10087645    -0.20010
F1546       F  0.37973174  0.06690822  0.07445932    -0.20060
F1547       F  0.39851619  0.01628900  0.08705714    -0.20380
F1548       F  0.40441971  0.05775459  0.12336765    -0.23060
C1549       C  0.74856353  0.79869014  0.04486129    -0.05890
C1550       C  0.73240523  0.78111859  0.01940532     0.00030
C1551       C  0.69742978  0.78082831  0.01941607    -0.08540
C1552       C  0.68057575  0.80051555  0.04204870    -0.05910
C1553       C  0.69554051  0.81785830  0.06883521     0.00020
C1554       C  0.73102448  0.81443488  0.07107444    -0.08450
C1555       C  0.75161860  0.82345746  0.10101035     0.61930
H1556       H  0.77536990  0.79946142  0.04461817     0.12630
H1557       H  0.65437144  0.80082388  0.03799384     0.12640
C1558       C  0.67580184  0.76053481  0.99591863     0.62170
F1559       F  0.77860676  0.80251434  0.10411554    -0.23000
F1560       F  0.73357943  0.82015667  0.12951989    -0.20330
F1561       F  0.76364823  0.85512316  0.09771072    -0.20010
F1562       F  0.65400937  0.74171928  0.01424743    -0.20060
F1563       F  0.69336829  0.73910949  0.97617757    -0.20380
F1564       F  0.65765221  0.78149706  0.97588014    -0.23060
C1565       C  0.58736075  0.90099618  0.13360726    -0.05890
C1566       C  0.58264752  0.88644107  0.16451557     0.00030
C1567       C  0.60796551  0.86620124  0.17790381    -0.08540
C1568       C  0.63669968  0.86075367  0.15933231    -0.05910
C1569       C  0.64259353  0.87628015  0.12882617     0.00020
C1570       C  0.61661724  0.89644044  0.11537752    -0.08450
C1571       C  0.61681597  0.91314840  0.08193378     0.61930
H1572       H  0.56806678  0.91686095  0.12371344     0.12630
H1573       H  0.65441420  0.84307712  0.16836652     0.12640
C1574       C  0.60503070  0.85028972  0.21177830     0.62170
F1575       F  0.61452315  0.94688586  0.08598406    -0.23000
F1576       F  0.58954925  0.90299551  0.06374106    -0.20330
F1577       F  0.64467523  0.90628167  0.06407007    -0.20010
F1578       F  0.57468297  0.83480668  0.21472463    -0.20060
F1579       F  0.60825864  0.87413868  0.23602536    -0.20380
F1580       F  0.62945941  0.82691761  0.21728445    -0.23060
C1581       C  0.30990712  0.88513891  0.13346002    -0.05890
C1582       C  0.29141979  0.86005003  0.14873156     0.00030
C1583       C  0.30825094  0.83792169  0.17061113    -0.08540
C1584       C  0.34172525  0.84385518  0.17820761    -0.05910
C1585       C  0.35938004  0.86986285  0.16394104     0.00020
C1586       C  0.34388656  0.88954067  0.13961939    -0.08450
C1587       C  0.36296450  0.91594700  0.12130443     0.61930
H1588       H  0.29751128  0.90035229  0.11543584     0.12630
H1589       H  0.35379022  0.82911436  0.19712560     0.12640
C1590       C  0.29256827  0.80869211  0.18788155     0.62170
F1591       F  0.34451044  0.92996943  0.09614140    -0.23000
F1592       F  0.39105107  0.90239920  0.10744150    -0.20330
F1593       F  0.37219899  0.94054841  0.14296576    -0.20010
F1594       F  0.30912086  0.78024115  0.17896925    -0.20060
F1595       F  0.25936345  0.80515490  0.18051375    -0.20380
F1596       F  0.29585595  0.81231879  0.22173875    -0.23060
C1597       C  0.55564908  0.63623969  0.13532262    -0.05890
C1598       C  0.53243065  0.61706618  0.11792897     0.00030
C1599       C  0.51709359  0.58986283  0.13373416    -0.08540
C1600       C  0.52341702  0.58531019  0.16732611    -0.05910
C1601       C  0.54901537  0.60176120  0.18349110     0.00020
C1602       C  0.56539795  0.62826162  0.16748883    -0.08450
C1603       C  0.59270237  0.64918215  0.18268721     0.61930
H1604       H  0.56728195  0.65712395  0.12337119     0.12630
H1605       H  0.51026991  0.56670151  0.18084559     0.12640
C1606       C  0.49671996  0.56378237  0.11541798     0.62170
F1607       F  0.58158559  0.68134379  0.18578418    -0.23000
F1608       F  0.62001238  0.64906592  0.16220793    -0.20330
F1609       F  0.60264604  0.63831405  0.21338552    -0.20010
F1610       F  0.51440166  0.55218672  0.08861524    -0.20060
F1611       F  0.46683412  0.57646266  0.10479283    -0.20380
F1612       F  0.48952222  0.53699226  0.13523676    -0.23060
C1613       C  0.40765553  0.61626852  0.14286805    -0.05890
C1614       C  0.38255748  0.62806758  0.12211927     0.00030
C1615       C  0.35015469  0.63205303  0.13499282    -0.08540
C1616       C  0.34411602  0.62228316  0.16782597    -0.05910
C1617       C  0.36861315  0.60664256  0.18720021     0.00020
C1618       C  0.40115777  0.60408014  0.17458599    -0.08450
C1619       C  0.42860114  0.58603176  0.19281520     0.61930
H1620       H  0.43262346  0.61574737  0.13352750     0.12630
H1621       H  0.31930212  0.62380297  0.17760678     0.12640
C1622       C  0.32160309  0.64465261  0.11395671     0.62170
F1623       F  0.45473099  0.58014557  0.17230614    -0.23000
F1624       F  0.41815453  0.55559183  0.20399051    -0.20330
F1625       F  0.43998586  0.60490462  0.21883638    -0.20010
F1626       F  0.31866815  0.62564089  0.08567204    -0.20060
F1627       F  0.32711873  0.67718939  0.10543900    -0.20380
F1628       F  0.29172388  0.64323400  0.13049260    -0.23060
C1629       C  0.34813575  0.61580772  0.88109449    -0.05890
C1630       C  0.38150680  0.61536408  0.89020526     0.00030
C1631       C  0.40569090  0.60657097  0.86674349    -0.08540
C1632       C  0.39549564  0.59433708  0.83613900    -0.05910
C1633       C  0.36219044  0.59518335  0.82644886     0.00020
C1634       C  0.33808706  0.60757542  0.84894291    -0.08450
C1635       C  0.30246461  0.61511740  0.84014183     0.61930
H1636       H  0.32987504  0.62401003  0.89886588     0.12630
H1637       H  0.41368061  0.58498438  0.81887646     0.12640
C1638       C  0.44211959  0.61162786  0.87295678     0.62170
F1639       F  0.28177007  0.59341033  0.85627344    -0.23000
F1640       F  0.29679224  0.61355167  0.80667826    -0.20330
F1641       F  0.29477043  0.64690392  0.85016099    -0.20010
F1642       F  0.45297082  0.58718709  0.89399480    -0.20060
F1643       F  0.44791251  0.64236706  0.88679581    -0.20380
F1644       F  0.45983055  0.61020097  0.84389224    -0.23060
C1645       C  0.52194788  0.58857180  0.87631645    -0.05890
C1646       C  0.53421842  0.61855056  0.88880527     0.00030
C1647       C  0.55388577  0.63845435  0.86793082    -0.08540
C1648       C  0.56205453  0.62594366  0.83669935    -0.05910
C1649       C  0.54544247  0.59911921  0.82209677     0.00020
C1650       C  0.52432090  0.58026425  0.84260556    -0.08450
C1651       C  0.50371020  0.55198515  0.82932175     0.61930
H1652       H  0.50916068  0.57211291  0.89287463     0.12630
H1653       H  0.58146574  0.63777300  0.82335522     0.12640
C1654       C  0.56511609  0.67331761  0.87689373     0.62170
F1655       F  0.48047950  0.54131813  0.85191521    -0.23000
F1656       F  0.52384105  0.52572946  0.82231195    -0.20330
F1657       F  0.48698495  0.56176577  0.80109630    -0.20010
F1658       F  0.58677693  0.67297937  0.90343130    -0.20060
F1659       F  0.53782167  0.69248199  0.88447524    -0.20380
F1660       F  0.58113278  0.68845725  0.85086904    -0.23060
C1661       C  0.61417266  0.83361685  0.06762832    -0.05890
C1662       C  0.63592141  0.82077188  0.09150312     0.00030
C1663       C  0.62491948  0.79382222  0.11100846    -0.08540
C1664       C  0.59281131  0.78091205  0.10550531    -0.05910
C1665       C  0.57175751  0.79304238  0.08051786     0.00020
C1666       C  0.58311273  0.81955865  0.06086419    -0.08450
C1667       C  0.56475898  0.83010704  0.03006033     0.61930
H1668       H  0.62379345  0.85227893  0.05135019     0.12630
H1669       H  0.58482509  0.75970147  0.11968225     0.12640
C1670       C  0.64593437  0.77683280  0.13698029     0.62170
F1671       F  0.58173587  0.85403639  0.01258880    -0.23000
F1672       F  0.53415603  0.84289201  0.03834799    -0.20330
F1673       F  0.56092988  0.80289707  0.00968426    -0.20010
F1674       F  0.62981244  0.77818370  0.16698673    -0.20060
F1675       F  0.67676913  0.79087735  0.14090306    -0.20380
F1676       F  0.65022348  0.74409906  0.12822661    -0.23060
C1677       C  0.30872140  0.83228342  0.08371578    -0.05890
C1678       C  0.28497992  0.81360215  0.10104221     0.00030
C1679       C  0.29187875  0.78000006  0.10763572    -0.08540
C1680       C  0.32357352  0.76790237  0.10032506    -0.05910
C1681       C  0.34788007  0.78722138  0.08468367     0.00020
C1682       C  0.34017879  0.82005573  0.07583311    -0.08450
C1683       C  0.36406265  0.84172400  0.05683312     0.61930
H1684       H  0.30187711  0.85688842  0.07589738     0.12630
H1685       H  0.32880426  0.74213058  0.10525628     0.12640
C1686       C  0.26636116  0.75489317  0.11863219     0.62170
F1687       F  0.35132756  0.87295972  0.05116735    -0.23000
F1688       F  0.37079817  0.82764688  0.02652314    -0.20330
F1689       F  0.39317804  0.84515750  0.07458950    -0.20010
F1690       F  0.25872159  0.73478905  0.09205689    -0.20060
F1691       F  0.23755907  0.76899270  0.12994054    -0.20380
F1692       F  0.27912971  0.73536299  0.14363301    -0.23060
C1693       C  0.72167637  0.88144790  0.87042080    -0.05890
C1694       C  0.68844998  0.88218470  0.85835283     0.00030
C1695       C  0.68265455  0.90598587  0.83216180    -0.08540
C1696       C  0.70978595  0.91960491  0.81564527    -0.05910
C1697       C  0.74042054  0.92311247  0.83092648     0.00020
C1698       C  0.74689822  0.90289093  0.85880917    -0.08450
C1699       C  0.78031199  0.90140106  0.87600052     0.61930
H1700       H  0.72888535  0.86564004  0.89019506     0.12630
H1701       H  0.70541495  0.93275895  0.79304533     0.12640
C1702       C  0.65036277  0.92479329  0.82559509     0.62170
F1703       F  0.77655064  0.90911312  0.90906023    -0.23000
F1704       F  0.80316150  0.92279362  0.86258678    -0.20330
F1705       F  0.79280207  0.86968394  0.87348481    -0.20010
F1706       F  0.63657554  0.93433841  0.85499488    -0.20060
F1707       F  0.62852998  0.90661755  0.80677952    -0.20380
F1708       F  0.65545769  0.95399551  0.80852467    -0.23060
C1709       C  0.71392225  0.79805601  0.90296856    -0.05890
C1710       C  0.69522584  0.82458716  0.91485833     0.00030
C1711       C  0.70498592  0.83788515  0.94561469    -0.08540
C1712       C  0.72971361  0.82138663  0.96411933    -0.05910
C1713       C  0.74011223  0.78825749  0.95744346     0.00020
C1714       C  0.73261911  0.77698932  0.92414191    -0.08450
C1715       C  0.74150048  0.74371862  0.90893604     0.61930
H1716       H  0.71169110  0.79225765  0.87712871     0.12630
H1717       H  0.73770267  0.83324671  0.98677761     0.12640
C1718       C  0.68984401  0.86880994  0.96047003     0.62170
F1719       F  0.72295575  0.73673986  0.88091198    -0.23000
F1720       F  0.73546520  0.71841461  0.93056718    -0.20330
F1721       F  0.77378394  0.74396547  0.89852047    -0.20010
F1722       F  0.66969416  0.85997432  0.98650661    -0.20060
F1723       F  0.67140062  0.88671198  0.93794723    -0.20380
F1724       F  0.71465305  0.88929939  0.97224368    -0.23060
C1725       C  0.60885695  0.83476187  0.92670514    -0.05890
C1726       C  0.63229580  0.81653240  0.90821115     0.00030
C1727       C  0.62263898  0.78439846  0.89713859    -0.08540
C1728       C  0.59111869  0.77238265  0.90514579    -0.05910
C1729       C  0.56792051  0.79098646  0.92256431     0.00020
C1730       C  0.57578284  0.82390864  0.93091760    -0.08450
C1731       C  0.54878707  0.84852809  0.93961819     0.61930
H1732       H  0.61579512  0.85893049  0.93560477     0.12630
H1733       H  0.58467192  0.74713386  0.89906479     0.12640
C1734       C  0.64594088  0.76004462  0.88127438     0.62170
F1735       F  0.56127975  0.88007736  0.94337733    -0.23000
F1736       F  0.53282847  0.84048914  0.96836245    -0.20330
F1737       F  0.52561838  0.84877786  0.91439560    -0.20010
F1738       F  0.66679517  0.74812312  0.90548701    -0.20060
F1739       F  0.66330073  0.77445292  0.85613646    -0.20380
F1740       F  0.62954384  0.73329089  0.86759954    -0.23060
C1741       C  0.70718499  0.03302952  0.84085827    -0.05890
C1742       C  0.70190538  0.02989790  0.87500892     0.00030
C1743       C  0.72069614  0.00470751  0.89120309    -0.08540
C1744       C  0.74200173  0.98400004  0.87252106    -0.05910
C1745       C  0.74344752  0.98425127  0.83764876     0.00020
C1746       C  0.72374481  0.00897574  0.82177687    -0.08450
C1747       C  0.71527611  0.01002148  0.78555683     0.61930
H1748       H  0.69529906  0.05304725  0.82794002     0.12630
H1749       H  0.75633192  0.96561462  0.88558077     0.12640
C1750       C  0.72019588  0.99849760  0.92798605     0.62170
F1751       F  0.68176971  0.01613169  0.78114855    -0.23000
F1752       F  0.72163948  0.98061842  0.77020552    -0.20330
F1753       F  0.73280185  0.03536062  0.77108567    -0.20010
F1754       F  0.70265256  0.96991417  0.93428995    -0.20060
F1755       F  0.70651726  0.02443902  0.94494309    -0.20380
F1756       F  0.75216468  0.99447551  0.93983399    -0.23060
C1757       C  0.30196029  0.79980712  0.88947152    -0.05890
C1758       C  0.28589954  0.81879402  0.91408074     0.00030
C1759       C  0.30388121  0.82495115  0.94422803    -0.08540
C1760       C  0.33570650  0.81133901  0.94800788    -0.05910
C1761       C  0.35029668  0.79150185  0.92397495     0.00020
C1762       C  0.33350125  0.78580263  0.89402777    -0.08450
C1763       C  0.34935397  0.76551811  0.86680384     0.61930
H1764       H  0.29006507  0.79667972  0.86582550     0.12630
H1765       H  0.34891394  0.81493598  0.97105383     0.12640
C1766       C  0.29244681  0.84507624  0.97389040     0.62170
F1767       F  0.33017269  0.76504085  0.83835577    -0.23000
F1768       F  0.35371622  0.73330497  0.87720116    -0.20330
F1769       F  0.37983670  0.77889190  0.85907136    -0.20010
F1770       F  0.29502603  0.82582525  0.00168442    -0.20060
F1771       F  0.26061561  0.85647144  0.97116452    -0.20380
F1772       F  0.31289570  0.87183268  0.97933423    -0.23060
C1773       C  0.55253267  0.82912911  0.67947890    -0.05890
C1774       C  0.53440754  0.84792157  0.65628580     0.00030
C1775       C  0.52487903  0.83315693  0.62590611    -0.08540
C1776       C  0.53492039  0.80063485  0.61970341    -0.05910
C1777       C  0.55415747  0.78241116  0.64230012     0.00020
C1778       C  0.56190174  0.79636839  0.67350746    -0.08450
C1779       C  0.57641098  0.77727774  0.70250767     0.61930
H1780       H  0.55853523  0.83966033  0.70339916     0.12630
H1781       H  0.52739221  0.78869773  0.59698592     0.12640
C1782       C  0.50387153  0.85082517  0.60015925     0.62170
F1783       F  0.60328067  0.79404101  0.71551857    -0.23000
F1784       F  0.58649432  0.74575421  0.69434957    -0.20330
F1785       F  0.55267980  0.77484566  0.72686267    -0.20010
F1786       F  0.51880408  0.88018361  0.59127562    -0.20060
F1787       F  0.47272842  0.85694983  0.61280367    -0.20380
F1788       F  0.49979359  0.83219182  0.57171309    -0.23060
C1789       C  0.35713529  0.09654197  0.67221026    -0.05890
C1790       C  0.38781191  0.08161593  0.66609910     0.00030
C1791       C  0.41364124  0.10110735  0.65314293    -0.08540
C1792       C  0.40576409  0.13142072  0.63855065    -0.05910
C1793       C  0.37408478  0.14508706  0.64064747     0.00020
C1794       C  0.35025985  0.12887197  0.66103774    -0.08450
C1795       C  0.31804950  0.14445271  0.67242930     0.61930
H1796       H  0.33828976  0.08277212  0.68522499     0.12630
H1797       H  0.42385855  0.14339282  0.62334613     0.12640
C1798       C  0.44941174  0.08975571  0.65469899     0.62170
F1799       F  0.29183378  0.12341202  0.66607727    -0.23000
F1800       F  0.31149274  0.17440961  0.65747718    -0.20330
F1801       F  0.31987584  0.14953110  0.70617351    -0.20010
F1802       F  0.45685674  0.06940779  0.62830168    -0.20060
F1803       F  0.45514311  0.07377570  0.68426255    -0.20380
F1804       F  0.47090204  0.11553548  0.65412301    -0.23060
C1805       C  0.57957957  0.08172194  0.67173141    -0.05890
C1806       C  0.54650124  0.07992255  0.68190410     0.00030
C1807       C  0.53211882  0.10951908  0.69414831    -0.08540
C1808       C  0.54533274  0.13987384  0.68337194    -0.05910
C1809       C  0.57620008  0.14147307  0.66697000     0.00020
C1810       C  0.59569368  0.11244788  0.66961416    -0.08450
C1811       C  0.63137809  0.11354225  0.68051723     0.61930
H1812       H  0.59390941  0.05917079  0.66961623     0.12630
H1813       H  0.53218553  0.16224283  0.68971761     0.12640
C1814       C  0.50788379  0.11071241  0.72270133     0.62170
F1815       F  0.63406540  0.09918995  0.71140572    -0.23000
F1816       F  0.64260416  0.14560996  0.68337341    -0.20330
F1817       F  0.65086900  0.09577269  0.65901165    -0.20010
F1818       F  0.52340931  0.12560780  0.74936369    -0.20060
F1819       F  0.49761925  0.07979205  0.73268042    -0.20380
F1820       F  0.48047032  0.12946681  0.71460647    -0.23060
C1821       C  0.38492682  0.82686044  0.66907437    -0.05890
C1822       C  0.38623017  0.85192503  0.64557088     0.00030
C1823       C  0.37989008  0.84431652  0.61203764    -0.08540
C1824       C  0.37140462  0.81158485  0.60343137    -0.05910
C1825       C  0.36803708  0.78644602  0.62729536     0.00020
C1826       C  0.37636781  0.79420439  0.66087445    -0.08450
C1827       C  0.37619446  0.76920697  0.68874188     0.61930
H1828       H  0.39076551  0.83335838  0.69440064     0.12630
H1829       H  0.36627991  0.80548327  0.57787147     0.12640
C1830       C  0.38057083  0.87091955  0.58576786     0.62170
F1831       F  0.38425253  0.78302299  0.71904993    -0.23000
F1832       F  0.39906979  0.74525337  0.68241797    -0.20330
F1833       F  0.34569023  0.75493981  0.69192961    -0.20010
F1834       F  0.41237690  0.88298763  0.58257881    -0.20060
F1835       F  0.35960407  0.89644007  0.59459672    -0.20380
F1836       F  0.37042179  0.85904261  0.55527184    -0.23060
C1837       C  0.33573139  0.01901126  0.85883017    -0.05890
C1838       C  0.35097240  0.03807153  0.83440533     0.00030
C1839       C  0.33634274  0.06832431  0.82492571    -0.08540
C1840       C  0.30526824  0.07687109  0.83793051    -0.05910
C1841       C  0.28775764  0.05588502  0.85926461     0.00020
C1842       C  0.30487101  0.02793831  0.87236466    -0.08450
C1843       C  0.29283382  0.00709437  0.90102541     0.61930
H1844       H  0.34752921  0.99626121  0.86670803     0.12630
H1845       H  0.29420411  0.09989409  0.83076408     0.12640
C1846       C  0.35361754  0.09153333  0.80116773     0.62170
F1847       F  0.31671681  0.00689502  0.92561968    -0.23000
F1848       F  0.28799506  0.97517162  0.89070941    -0.20330
F1849       F  0.26368375  0.01805578  0.91455847    -0.20010
F1850       F  0.35513797  0.07749257  0.77007753    -0.20060
F1851       F  0.38540813  0.09775988  0.81241750    -0.20380
F1852       F  0.33722909  0.12145887  0.79840105    -0.23060
C1853       C  0.58514144  0.84744311  0.81518003    -0.05890
C1854       C  0.56284718  0.86992523  0.82938670     0.00030
C1855       C  0.57230501  0.88729119  0.85836546    -0.08540
C1856       C  0.60375863  0.88123304  0.87197864    -0.05910
C1857       C  0.62723580  0.86101240  0.85626772     0.00020
C1858       C  0.61771690  0.84367302  0.82717626    -0.08450
C1859       C  0.64132096  0.82430779  0.80546840     0.61930
H1860       H  0.57822395  0.83538394  0.79220540     0.12630
H1861       H  0.61160509  0.89476402  0.89369336     0.12640
C1862       C  0.55137397  0.91516033  0.87250280     0.62170
F1863       F  0.63007294  0.79221207  0.80234354    -0.23000
F1864       F  0.67343825  0.82375597  0.81732012    -0.20330
F1865       F  0.64192213  0.83848905  0.77441906    -0.20010
F1866       F  0.52059785  0.90365967  0.88166068    -0.20060
F1867       F  0.54756129  0.93948676  0.84895194    -0.20380
F1868       F  0.56579677  0.92945108  0.90005047    -0.23060
C1869       C  0.58380499  0.00795100  0.86908889    -0.05890
C1870       C  0.57552212  0.02391661  0.83951122     0.00030
C1871       C  0.59889549  0.04615388  0.82576955    -0.08540
C1872       C  0.62940338  0.05123170  0.84203171    -0.05910
C1873       C  0.63842375  0.03493506  0.87149604     0.00020
C1874       C  0.61463617  0.01283140  0.88528485    -0.08450
C1875       C  0.61969866  0.99380410  0.91691758     0.61930
H1876       H  0.56615289  0.99085811  0.87947425     0.12630
H1877       H  0.64586956  0.06971152  0.83234676     0.12640
C1878       C  0.59231428  0.06451379  0.79356524     0.62170
F1879       F  0.62337351  0.96069877  0.91011598    -0.23000
F1880       F  0.59211703  0.99760286  0.93667025    -0.20330
F1881       F  0.64715440  0.00399142  0.93412941    -0.20010
F1882       F  0.55976834  0.07510465  0.79192490    -0.20060
F1883       F  0.59873960  0.04391453  0.76709465    -0.20380
F1884       F  0.61231995  0.09208932  0.79062843    -0.23060
C1885       C  0.34369325  0.88469542  0.85629823    -0.05890
C1886       C  0.34498737  0.87461373  0.82339946     0.00030
C1887       C  0.31737134  0.85754709  0.80975767    -0.08540
C1888       C  0.28874613  0.85309757  0.82927672    -0.05910
C1889       C  0.28675514  0.86483240  0.86196241     0.00020
C1890       C  0.31503413  0.88143746  0.87538492    -0.08450
C1891       C  0.31698654  0.89798069  0.90871331     0.61930
H1892       H  0.36470066  0.89781534  0.86673899     0.12630
H1893       H  0.26734586  0.84062203  0.81896776     0.12640
C1894       C  0.31810823  0.84361822  0.77496351     0.62170
F1895       F  0.32658661  0.93040052  0.90490665    -0.23000
F1896       F  0.34141896  0.88259670  0.92703268    -0.20330
F1897       F  0.28726834  0.89769848  0.92532040    -0.20010
F1898       F  0.34774750  0.82731945  0.76972605    -0.20060
F1899       F  0.31469765  0.86882041  0.75224246    -0.20380
F1900       F  0.29269482  0.82127935  0.76965890    -0.23060
C1901       C  0.52362201  0.31789587  0.86709309    -0.05890
C1902       C  0.54412626  0.29329359  0.87973659     0.00030
C1903       C  0.56855573  0.27935997  0.85902104    -0.08540
C1904       C  0.57339447  0.29359256  0.82759042    -0.05910
C1905       C  0.55284793  0.31924047  0.81546613     0.00020
C1906       C  0.52504894  0.32785050  0.83457103    -0.08450
C1907       C  0.49324456  0.34226692  0.82241938     0.61930
H1908       H  0.50329714  0.32742182  0.88167736     0.12630
H1909       H  0.59366443  0.28517638  0.81235732     0.12640
C1910       C  0.58849551  0.24947777  0.86930566     0.62170
F1911       F  0.46900449  0.31843019  0.82594203    -0.23000
F1912       F  0.49418541  0.35139877  0.79011386    -0.20330
F1913       F  0.48525144  0.36935811  0.84163621    -0.20010
F1914       F  0.56706070  0.22355468  0.87485931    -0.20060
F1915       F  0.60622133  0.25624179  0.89782522    -0.20380
F1916       F  0.61060370  0.23982644  0.84512624    -0.23060
C1917       C  0.39494521  0.35370212  0.15115508    -0.05890
C1918       C  0.38248897  0.33111982  0.17432142     0.00030
C1919       C  0.37899954  0.29766014  0.16438320    -0.08540
C1920       C  0.38464636  0.28916791  0.13119603    -0.05910
C1921       C  0.39731356  0.31195365  0.10852665     0.00020
C1922       C  0.40370200  0.34465303  0.11897277    -0.08450
C1923       C  0.42002089  0.37006044  0.09676938     0.61930
H1924       H  0.39885176  0.37879160  0.15850432     0.12630
H1925       H  0.38182512  0.26374362  0.12335774     0.12640
C1926       C  0.37593599  0.26995099  0.18903025     0.62170
F1927       F  0.42123910  0.40100635  0.11124197    -0.23000
F1928       F  0.40256908  0.37268015  0.06738439    -0.20330
F1929       F  0.45233752  0.36079629  0.09049979    -0.20010
F1930       F  0.36821949  0.24012336  0.17407958    -0.20060
F1931       F  0.35204253  0.27626534  0.21227077    -0.20380
F1932       F  0.40623799  0.26681675  0.20439335    -0.23060
C1933       C  0.59357543  0.30681590  0.14965483    -0.05890
C1934       C  0.56857653  0.31476570  0.17280467     0.00030
C1935       C  0.53522784  0.31267441  0.16101075    -0.08540
C1936       C  0.52858901  0.30595164  0.12767681    -0.05910
C1937       C  0.55350056  0.30138300  0.10485907     0.00020
C1938       C  0.58677953  0.30193885  0.11563434    -0.08450
C1939       C  0.61479030  0.29963082  0.09094660     0.61930
H1940       H  0.61879529  0.30543614  0.15807823     0.12630
H1941       H  0.50331819  0.30374833  0.11885842     0.12640
C1942       C  0.50596406  0.31801047  0.18251893     0.62170
F1943       F  0.64519824  0.30570271  0.10549601    -0.23000
F1944       F  0.60999818  0.32282559  0.06630613    -0.20330
F1945       F  0.61574983  0.26847450  0.07705651    -0.20010
F1946       F  0.51034307  0.34773119  0.19867136    -0.20060
F1947       F  0.50313230  0.29205651  0.20393882    -0.20380
F1948       F  0.47657387  0.31858151  0.16478480    -0.23060
C1949       C  0.35740909  0.28722786  0.82656468    -0.05890
C1950       C  0.36928079  0.31610274  0.81196046     0.00030
C1951       C  0.39311235  0.33489326  0.82931260    -0.08540
C1952       C  0.40281158  0.32480492  0.86167088    -0.05910
C1953       C  0.39055356  0.29553790  0.87648954     0.00020
C1954       C  0.36844897  0.27567353  0.85748674    -0.08450
C1955       C  0.35650516  0.24195312  0.86877257     0.61930
H1956       H  0.33816256  0.27401414  0.81398726     0.12630
H1957       H  0.42074248  0.33943715  0.87521205     0.12640
C1958       C  0.40993305  0.36397982  0.81255151     0.62170
F1959       F  0.33937622  0.22559233  0.84399872    -0.23000
F1960       F  0.33550468  0.24538012  0.89542502    -0.20330
F1961       F  0.38325490  0.22231069  0.87727327    -0.20010
F1962       F  0.42644742  0.38347634  0.83522412    -0.20060
F1963       F  0.38830520  0.38414649  0.79589763    -0.20380
F1964       F  0.43149200  0.35216304  0.78914739    -0.23060
C1965       C  0.58279206  0.09102533  0.94994838    -0.05890
C1966       C  0.56810896  0.11251042  0.92690648     0.00030
C1967       C  0.58486895  0.11890967  0.89700132    -0.08540
C1968       C  0.61643414  0.10531722  0.89213581    -0.05910
C1969       C  0.63246327  0.08566663  0.91601142     0.00020
C1970       C  0.61539522  0.07899895  0.94611332    -0.08450
C1971       C  0.63078038  0.06207809  0.97603051     0.61930
H1972       H  0.57009098  0.08654456  0.97301909     0.12630
H1973       H  0.62975608  0.11178997  0.86992328     0.12640
C1974       C  0.57114908  0.14032786  0.86946067     0.62170
F1975       F  0.62519299  0.08020720  0.00406263    -0.23000
F1976       F  0.66441101  0.05828178  0.97322704    -0.20330
F1977       F  0.61631789  0.03185572  0.98141523    -0.20010
F1978       F  0.59282123  0.16603268  0.86372945    -0.20060
F1979       F  0.54018653  0.15318254  0.87614570    -0.20380
F1980       F  0.56859466  0.12169069  0.84098749    -0.23060
C1981       C  0.32212391  0.15232740  0.07580805    -0.05890
C1982       C  0.35196727  0.14403933  0.09127347     0.00030
C1983       C  0.34997441  0.12526239  0.12086805    -0.08540
C1984       C  0.31917607  0.10931858  0.12865643    -0.05910
C1985       C  0.29023759  0.11452226  0.10895423     0.00020
C1986       C  0.29221180  0.14357792  0.08999879    -0.08450
C1987       C  0.26827517  0.17142643  0.09394845     0.61930
H1988       H  0.32167155  0.17087629  0.05655430     0.12630
H1989       H  0.31830544  0.09240709  0.14910830     0.12640
C1990       C  0.37804281  0.12609514  0.14572584     0.62170
F1991       F  0.28442352  0.19861321  0.10715099    -0.23000
F1992       F  0.24308476  0.16336731  0.11523455    -0.20330
F1993       F  0.25633136  0.17980510  0.06328617    -0.20010
F1994       F  0.37983174  0.15743206  0.15922402    -0.20060
F1995       F  0.40791447  0.11916302  0.13083135    -0.20380
F1996       F  0.37309126  0.10371584  0.17101174    -0.23060
C1997       C  0.59017460  0.13884088  0.11552634    -0.05890
C1998       C  0.58075211  0.14008389  0.08226492     0.00030
C1999       C  0.60566285  0.13472497  0.05813058    -0.08540
C2000       C  0.63493639  0.11863102  0.06756674    -0.05910
C2001       C  0.64330936  0.11391669  0.10084841     0.00020
C2002       C  0.62251927  0.12928673  0.12481137    -0.08450
C2003       C  0.63441466  0.14044103  0.15843961     0.61930
H2004       H  0.57343644  0.14858592  0.13399378     0.12630
H2005       H  0.65225615  0.11106290  0.04886257     0.12640
C2006       C  0.60319185  0.14896329  0.02348828     0.62170
F2007       F  0.63338245  0.17455645  0.15963564    -0.23000
F2008       F  0.66654529  0.13078694  0.16492218    -0.20330
F2009       F  0.61365679  0.12846631  0.18261120    -0.20010
F2010       F  0.60425548  0.18305690  0.02491944    -0.20060
F2011       F  0.57418014  0.13888140  0.00852706    -0.20380
F2012       F  0.62929571  0.13941671  0.00394208    -0.23060
C2013       C  0.32928992  0.14383733  0.90651952    -0.05890
C2014       C  0.34804329  0.12565803  0.92930754     0.00030
C2015       C  0.33444522  0.09611281  0.94204910    -0.08540
C2016       C  0.30268334  0.08588372  0.93095030    -0.05910
C2017       C  0.28340696  0.10459765  0.90855905     0.00020
C2018       C  0.29682684  0.13507658  0.89732353    -0.08450
C2019       C  0.27657212  0.16041191  0.87867621     0.61930
H2020       H  0.33970416  0.16677522  0.89765940     0.12630
H2021       H  0.29194730  0.06372523  0.94090544     0.12640
C2022       C  0.35268327  0.07620613  0.96808050     0.62170
F2023       F  0.29456629  0.18827726  0.87097487    -0.23000
F2024       F  0.25090362  0.17060029  0.89845975    -0.20330
F2025       F  0.26499165  0.14759782  0.84939049    -0.20010
F2026       F  0.35848582  0.09558971  0.99567211    -0.20060
F2027       F  0.38251899  0.06530954  0.95547683    -0.20380
F2028       F  0.33475904  0.04888552  0.97796710    -0.23060
C2029       C  0.78602288  0.55292807  0.33855761    -0.05890
C2030       C  0.77872382  0.54757206  0.37195856     0.00030
C2031       C  0.80316783  0.53183045  0.39215612    -0.08540
C2032       C  0.83342177  0.52297693  0.37791237    -0.05910
C2033       C  0.84055335  0.52955400  0.34484350     0.00020
C2034       C  0.81625538  0.54425141  0.32456494    -0.08450
C2035       C  0.82227939  0.55176308  0.28851812     0.61930
H2036       H  0.76879637  0.56630258  0.32349336     0.12630
H2037       H  0.85211515  0.51117091  0.39319993     0.12640
C2038       C  0.80001728  0.52343546  0.42841444     0.62170
F2039       F  0.79462322  0.56439353  0.27274917    -0.23000
F2040       F  0.83155231  0.52323593  0.27209357    -0.20330
F2041       F  0.84682396  0.57527595  0.28642168    -0.20010
F2042       F  0.77179688  0.53576325  0.44229868    -0.20060
F2043       F  0.82673485  0.53617689  0.44570887    -0.20380
F2044       F  0.80027875  0.48951362  0.43216911    -0.23060
C2045       C  0.08816381  0.35689768  0.32087121    -0.05890
C2046       C  0.07313251  0.38365399  0.33709852     0.00030
C2047       C  0.09182663  0.40174790  0.36098096    -0.08540
C2048       C  0.12508261  0.39301213  0.36626580    -0.05910
C2049       C  0.13864529  0.36419511  0.35285154     0.00020
C2050       C  0.12028292  0.34626265  0.32880171    -0.08450
C2051       C  0.13327005  0.31659456  0.30995958     0.61930
H2052       H  0.07435223  0.34331209  0.30227235     0.12630
H2053       H  0.13999177  0.40661296  0.38383930     0.12640
C2054       C  0.07728187  0.42955686  0.38167864     0.62170
F2055       F  0.11185644  0.29034621  0.31397041    -0.23000
F2056       F  0.16454256  0.30690394  0.31990552    -0.20330
F2057       F  0.13453474  0.32428036  0.27672476    -0.20010
F2058       F  0.04887887  0.41923731  0.39740549    -0.20060
F2059       F  0.07024901  0.45614597  0.36155527    -0.20380
F2060       F  0.09870176  0.43995948  0.40633999    -0.23060
C2061       C  0.08424851  0.53636864  0.32697040    -0.05890
C2062       C  0.06112827  0.53225840  0.35192761     0.00030
C2063       C  0.07040936  0.53464712  0.38533110    -0.08540
C2064       C  0.10359215  0.54108180  0.39255029    -0.05910
C2065       C  0.12762825  0.54446844  0.36755272     0.00020
C2066       C  0.11729839  0.54278534  0.33399767    -0.08450
C2067       C  0.14001658  0.54863713  0.30532548     0.61930
H2068       H  0.07621740  0.53372209  0.30152264     0.12630
H2069       H  0.11081499  0.54467805  0.41795994     0.12640
C2070       C  0.04541497  0.53148587  0.41301862     0.62170
F2071       F  0.15991071  0.52123932  0.30189626    -0.23000
F2072       F  0.12305809  0.55294635  0.27580249    -0.20330
F2073       F  0.15825179  0.57696684  0.31074756    -0.20010
F2074       F  0.05905808  0.53957338  0.44341901    -0.20060
F2075       F  0.03410909  0.49934415  0.41470020    -0.20380
F2076       F  0.01895980  0.55245264  0.40728264    -0.23060
C2077       C  0.82566775  0.34827597  0.32825404    -0.05890
C2078       C  0.83781072  0.37952315  0.33730703     0.00030
C2079       C  0.81664643  0.40192190  0.35413056    -0.08540
C2080       C  0.78623327  0.39040364  0.36539988    -0.05910
C2081       C  0.77449491  0.35879498  0.35751669     0.00020
C2082       C  0.79334956  0.33838664  0.33620516    -0.08450
C2083       C  0.77998290  0.30777443  0.31930963     0.61930
H2084       H  0.84099231  0.33196280  0.31355933     0.12630
H2085       H  0.77058112  0.40637588  0.38009668     0.12640
C2086       C  0.82435011  0.43840641  0.35840037     0.62170
F2087       F  0.78540400  0.31014174  0.28567116    -0.23000
F2088       F  0.74634613  0.30387197  0.32374093    -0.20330
F2089       F  0.79641232  0.28023659  0.33112585    -0.20010
F2090       F  0.83400139  0.45146987  0.32843783    -0.20060
F2091       F  0.84903780  0.44282456  0.38175634    -0.20380
F2092       F  0.79689701  0.45606290  0.36870585    -0.23060
C2093       C  0.06102750  0.32508543  0.19416538    -0.05890
C2094       C  0.04756455  0.35028077  0.17429589     0.00030
C2095       C  0.04832110  0.34611437  0.13969917    -0.08540
C2096       C  0.05898714  0.31552820  0.12686881    -0.05910
C2097       C  0.06819926  0.28818325  0.14689461     0.00020
C2098       C  0.07094874  0.29423161  0.18142314    -0.08450
C2099       C  0.08363508  0.26972812  0.20666986     0.61930
H2100       H  0.06204865  0.32879182  0.22069844     0.12630
H2101       H  0.05703492  0.31220424  0.10070875     0.12640
C2102       C  0.03582365  0.37258880  0.11622467     0.62170
F2103       F  0.11124107  0.28264870  0.22233868    -0.23000
F2104       F  0.09233886  0.23966054  0.19330185    -0.20330
F2105       F  0.05938449  0.26491479  0.23011526    -0.20010
F2106       F  0.05273165  0.40173071  0.12197048    -0.20060
F2107       F  0.00226982  0.37749541  0.12082264    -0.20380
F2108       F  0.04051382  0.36402093  0.08347109    -0.23060
C2109       C  0.06894077  0.58422453  0.18769987    -0.05890
C2110       C  0.03987564  0.56915195  0.17611639     0.00030
C2111       C  0.02005665  0.58639202  0.15301225    -0.08540
C2112       C  0.03150858  0.61652152  0.14005805    -0.05910
C2113       C  0.06202660  0.63034923  0.14912317     0.00020
C2114       C  0.08010878  0.61484576  0.17533023    -0.08450
C2115       C  0.10892399  0.63036376  0.19389341     0.61930
H2116       H  0.08234162  0.57260399  0.20785973     0.12630
H2117       H  0.01578580  0.63044475  0.12357511     0.12640
C2118       C  0.98575738  0.57431085  0.14383257     0.62170
F2119       F  0.09873568  0.63836849  0.22546566    -0.23000
F2120       F  0.12085783  0.65856043  0.17919310    -0.20330
F2121       F  0.13463037  0.60792254  0.19641749    -0.20010
F2122       F  0.96672918  0.57117270  0.17192214    -0.20060
F2123       F  0.98780599  0.54418270  0.12789440    -0.20380
F2124       F  0.96994029  0.59618300  0.12307800    -0.23060
C2125       C  0.83609617  0.30648000  0.16611414    -0.05890
C2126       C  0.86203240  0.29089498  0.14866540     0.00030
C2127       C  0.89037153  0.30981967  0.14163952    -0.08540
C2128       C  0.89168109  0.34321685  0.15008784    -0.05910
C2129       C  0.86761247  0.35761150  0.16973275     0.00020
C2130       C  0.83917324  0.33917467  0.17810472    -0.08450
C2131       C  0.81225110  0.35443597  0.19907136     0.61930
H2132       H  0.81336442  0.29306658  0.17006430     0.12630
H2133       H  0.91406431  0.35719457  0.14549614     0.12640
C2134       C  0.92135722  0.29399416  0.12994159     0.62170
F2135       F  0.78581048  0.33317136  0.20321174    -0.23000
F2136       F  0.80079860  0.38286706  0.18396037    -0.20330
F2137       F  0.82465116  0.36231353  0.22998593    -0.20010
F2138       F  0.91513978  0.27307476  0.10388780    -0.20060
F2139       F  0.93411702  0.27664756  0.15623887    -0.20380
F2140       F  0.94407823  0.31726580  0.11951078    -0.23060
C2141       C  0.02945020  0.68832946  0.82504000    -0.05890
C2142       C  0.04769303  0.69621430  0.85416942     0.00030
C2143       C  0.04811134  0.73082628  0.86138099    -0.08540
C2144       C  0.02200863  0.75128809  0.84883410    -0.05910
C2145       C  0.99870048  0.74027334  0.82486601     0.00020
C2146       C  0.00528495  0.70898220  0.81065467    -0.08450
C2147       C  0.98948703  0.69784282  0.77854523     0.61930
H2148       H  0.03391472  0.66517388  0.81275997     0.12630
H2149       H  0.02044792  0.77643009  0.85771745     0.12640
C2150       C  0.07829391  0.74886303  0.87430856     0.62170
F2151       F  0.99342329  0.66430533  0.77303412    -0.23000
F2152       F  0.00444495  0.71451740  0.75297561    -0.20330
F2153       F  0.95612654  0.70409320  0.77842561    -0.20010
F2154       F  0.10625753  0.72935040  0.87281176    -0.20060
F2155       F  0.07290389  0.76016040  0.90588915    -0.20380
F2156       F  0.08448483  0.77626000  0.85506953    -0.23060
C2157       C  0.81358035  0.67252801  0.94491563    -0.05890
C2158       C  0.83232702  0.68877218  0.92080873     0.00030
C2159       C  0.83798492  0.72320211  0.92762800    -0.08540
C2160       C  0.81473153  0.74058423  0.94730584    -0.05910
C2161       C  0.79080836  0.72425034  0.96615147     0.00020
C2162       C  0.79104176  0.68896670  0.96547516    -0.08450
C2163       C  0.76684253  0.66773392  0.98475327     0.61930
H2164       H  0.81494533  0.64588523  0.94590913     0.12630
H2165       H  0.81797114  0.76687851  0.95135120     0.12640
C2166       C  0.87268273  0.73656314  0.93191781     0.62170
F2167       F  0.76660873  0.63541409  0.97371538    -0.23000
F2168       F  0.73503562  0.67961000  0.98118218    -0.20330
F2169       F  0.77553594  0.66683630  0.01755697    -0.20010
F2170       F  0.88072559  0.75688543  0.90597816    -0.20060
F2171       F  0.89447579  0.71061180  0.93556526    -0.20380
F2172       F  0.87602671  0.75545770  0.96032539    -0.23060
C2173       C  0.92227171  0.70325366  0.87634714    -0.05890
C2174       C  0.88920357  0.70258599  0.86507638     0.00030
C2175       C  0.87830213  0.72989397  0.84533858    -0.08540
C2176       C  0.90241609  0.75243347  0.83336772    -0.05910
C2177       C  0.93664277  0.74839091  0.84009094     0.00020
C2178       C  0.94294272  0.73003942  0.86893226    -0.08450
C2179       C  0.96288428  0.74521868  0.89674774     0.61930
H2180       H  0.93052017  0.68513392  0.89425753     0.12630
H2181       H  0.89341972  0.77368564  0.82038380     0.12640
C2182       C  0.84253300  0.73703895  0.83596690     0.62170
F2183       F  0.94514531  0.74580311  0.92571285    -0.23000
F2184       F  0.97141802  0.77755120  0.88990045    -0.20330
F2185       F  0.99063601  0.72682672  0.90209049    -0.20010
F2186       F  0.82050660  0.71392428  0.84760169    -0.20060
F2187       F  0.83952154  0.73835731  0.80195235    -0.20380
F2188       F  0.83357973  0.76743526  0.84869606    -0.23060
C2189       C  0.82693955  0.37274581  0.68575634    -0.05890
C2190       C  0.84933913  0.38023909  0.66055002     0.00030
C2191       C  0.83831308  0.38012470  0.62734750    -0.08540
C2192       C  0.80466094  0.37449731  0.62098481    -0.05910
C2193       C  0.78266091  0.36361486  0.64563923     0.00020
C2194       C  0.79406725  0.36329804  0.67904543    -0.08450
C2195       C  0.77354686  0.35362497  0.70874213     0.61930
H2196       H  0.83546750  0.37367041  0.71118634     0.12630
H2197       H  0.79539066  0.37705841  0.59599136     0.12640
C2198       C  0.86202511  0.38339812  0.59846796     0.62170
F2199       F  0.79197247  0.33360580  0.72957435    -0.23000
F2200       F  0.74559560  0.33638105  0.70040009    -0.20330
F2201       F  0.76450488  0.38171533  0.72589136    -0.20010
F2202       F  0.88811575  0.36158146  0.60245216    -0.20060
F2203       F  0.87418396  0.41511153  0.59646395    -0.20380
F2204       F  0.84670772  0.37620989  0.56865476    -0.23060
C2205       C  0.10025922  0.54628634  0.67766299    -0.05890
C2206       C  0.08106346  0.53033594  0.65365181     0.00030
C2207       C  0.09487521  0.52415707  0.62215663    -0.08540
C2208       C  0.12761088  0.53456018  0.61612332    -0.05910
C2209       C  0.14592509  0.55314982  0.63934603     0.00020
C2210       C  0.13245085  0.55734744  0.67140625    -0.08450
C2211       C  0.15226023  0.57067631  0.70002742     0.61930
H2212       H  0.08995707  0.54944037  0.70207755     0.12630
H2213       H  0.13873142  0.52958754  0.59240350     0.12640
C2214       C  0.07470370  0.50876059  0.59437565     0.62170
F2215       F  0.13359340  0.57477855  0.72816593    -0.23000
F2216       F  0.16490496  0.60112011  0.69236059    -0.20330
F2217       F  0.17694155  0.54826137  0.70734455    -0.20010
F2218       F  0.04537954  0.52597819  0.59042805    -0.20060
F2219       F  0.06761535  0.47622758  0.60147762    -0.20380
F2220       F  0.09141355  0.50945662  0.56464126    -0.23060
C2221       C  0.09975836  0.40966989  0.64230475    -0.05890
C2222       C  0.08206917  0.38369539  0.65696267     0.00030
C2223       C  0.09689561  0.35217801  0.65959857    -0.08540
C2224       C  0.12871786  0.34781930  0.64658778    -0.05910
C2225       C  0.14499379  0.37287448  0.62886107     0.00020
C2226       C  0.13091147  0.40509666  0.62798314    -0.08450
C2227       C  0.14683429  0.43564646  0.61276345     0.61930
H2228       H  0.08894782  0.43413472  0.64182117     0.12630
H2229       H  0.14106223  0.32425132  0.64931394     0.12640
C2230       C  0.07908837  0.32294530  0.67479774     0.62170
F2231       F  0.12638207  0.44855699  0.58865443    -0.23000
F2232       F  0.17705047  0.42970710  0.59853214    -0.20330
F2233       F  0.15112016  0.45960552  0.63667023    -0.20010
F2234       F  0.04880524  0.31843388  0.65929536    -0.20060
F2235       F  0.07431498  0.32846033  0.70813977    -0.20380
F2236       F  0.09697907  0.29395968  0.67148184    -0.23060
C2237       C  0.83803648  0.56096916  0.66841075    -0.05890
C2238       C  0.85032411  0.53087912  0.65621570     0.00030
C2239       C  0.83002326  0.51170012  0.63465124    -0.08540
C2240       C  0.79839824  0.52341741  0.62663882    -0.05910
C2241       C  0.78620877  0.55338774  0.63861219     0.00020
C2242       C  0.80631883  0.57266711  0.66015392    -0.08450
C2243       C  0.79610401  0.60531091  0.67541244     0.61930
H2244       H  0.85340216  0.57574187  0.68474963     0.12630
H2245       H  0.78295056  0.50972117  0.60953053     0.12640
C2246       C  0.84068194  0.47872798  0.62027154     0.62170
F2247       F  0.81690605  0.62998947  0.66437875    -0.23000
F2248       F  0.79891608  0.60321483  0.70942312    -0.20330
F2249       F  0.76396389  0.61402430  0.66802531    -0.20010
F2250       F  0.84720345  0.45709958  0.64579004    -0.20060
F2251       F  0.86850713  0.48257936  0.60098005    -0.20380
F2252       F  0.81650826  0.46469482  0.60033439    -0.23060
C2253       C  0.01876869  0.58540696  0.84638597    -0.05890
C2254       C  0.04414013  0.56973562  0.82898133     0.00030
C2255       C  0.07455716  0.58608574  0.82470885    -0.08540
C2256       C  0.07877808  0.61776842  0.83837088    -0.05910
C2257       C  0.05432508  0.63287008  0.85800007     0.00020
C2258       C  0.02268406  0.61710846  0.86004101    -0.08450
C2259       C  0.99114182  0.63288037  0.87286731     0.61930
H2260       H  0.99464534  0.57366445  0.84724223     0.12630
H2261       H  0.10140509  0.63118565  0.83377434     0.12640
C2262       C  0.10227992  0.56974127  0.80573166     0.62170
F2263       F  0.97745238  0.61321136  0.89710173    -0.23000
F2264       F  0.96867567  0.63556913  0.84710717    -0.20330
F2265       F  0.99584415  0.66384416  0.88574446    -0.20010
F2266       F  0.09180009  0.56312031  0.77390482    -0.20060
F2267       F  0.11081742  0.54040932  0.82101103    -0.20380
F2268       F  0.13019497  0.58946262  0.80422966    -0.23060
C2269       C  0.89705037  0.61589558  0.87649435    -0.05890
C2270       C  0.88584389  0.64128668  0.85523563     0.00030
C2271       C  0.88886818  0.63685403  0.82069100    -0.08540
C2272       C  0.90166861  0.60703018  0.80900772    -0.05910
C2273       C  0.90811485  0.57975571  0.82970487     0.00020
C2274       C  0.90641475  0.58442294  0.86436872    -0.08450
C2275       C  0.91311592  0.55653022  0.88838343     0.61930
H2276       H  0.89552934  0.62010628  0.90286185     0.12630
H2277       H  0.90465529  0.60439862  0.78265141     0.12640
C2278       C  0.87748159  0.66224390  0.79549822     0.62170
F2279       F  0.90936786  0.56652393  0.92087310    -0.23000
F2280       F  0.94517213  0.54521042  0.88457781    -0.20330
F2281       F  0.89110895  0.53100914  0.88255473    -0.20010
F2282       F  0.89888246  0.68848092  0.79569189    -0.20060
F2283       F  0.84605015  0.67315448  0.80254681    -0.20380
F2284       F  0.87668219  0.64962143  0.76367921    -0.23060
C2285       C  0.07415674  0.33116622  0.82301288    -0.05890
C2286       C  0.04583037  0.34843348  0.83270767     0.00030
C2287       C  0.02373961  0.33384901  0.85539376    -0.08540
C2288       C  0.02957907  0.30126187  0.86568145    -0.05910
C2289       C  0.05696093  0.28293451  0.85457802     0.00020
C2290       C  0.08056591  0.29879255  0.83370789    -0.08450
C2291       C  0.11196189  0.28305969  0.82052172     0.61930
H2292       H  0.09064725  0.34252916  0.80529520     0.12630
H2293       H  0.01274121  0.28959582  0.88280314     0.12640
C2294       C  0.99306390  0.35191776  0.86716369     0.62170
F2295       F  0.11136303  0.28362033  0.78634633    -0.23000
F2296       F  0.11604513  0.25073662  0.83045774    -0.20330
F2297       F  0.13893693  0.30131769  0.83099854    -0.20010
F2298       F  0.97279639  0.35860095  0.84049302    -0.20060
F2299       F  0.00202703  0.38123771  0.88226276    -0.20380
F2300       F  0.97513667  0.33355517  0.88964937    -0.23060
C2301       C  0.79493538  0.70923984  0.08183285    -0.05890
C2302       C  0.82902618  0.70233055  0.07805321     0.00030
C2303       C  0.84482333  0.71639798  0.05020112    -0.08540
C2304       C  0.82568102  0.73497781  0.02758040    -0.05910
C2305       C  0.79057448  0.73479460  0.02718971     0.00020
C2306       C  0.77489826  0.72169821  0.05595495    -0.08450
C2307       C  0.73809915  0.71476342  0.05955583     0.61930
H2308       H  0.78252041  0.69943781  0.10317179     0.12630
H2309       H  0.83851114  0.74664466  0.00746700     0.12640
C2310       C  0.88095513  0.71157048  0.04139144     0.62170
F2311       F  0.73329147  0.68342525  0.07231937    -0.23000
F2312       F  0.72148340  0.71555530  0.03000548    -0.20330
F2313       F  0.72426322  0.73737206  0.08104971    -0.20010
F2314       F  0.88294750  0.69560355  0.01122273    -0.20060
F2315       F  0.89838452  0.69332683  0.06418791    -0.20380
F2316       F  0.89607980  0.74207400  0.03880101    -0.23060
C2317       C  0.86029021  0.62741818  0.16288528    -0.05890
C2318       C  0.87205389  0.63239553  0.13097286     0.00030
C2319       C  0.89074825  0.60663403  0.11548088    -0.08540
C2320       C  0.89484555  0.57629852  0.13261221    -0.05910
C2321       C  0.88328211  0.57188202  0.16503238     0.00020
C2322       C  0.86467865  0.59773269  0.17977846    -0.08450
C2323       C  0.85068611  0.59528682  0.21418611     0.61930
H2324       H  0.84876504  0.64800272  0.17545410     0.12630
H2325       H  0.90970909  0.55679705  0.12196151     0.12640
C2326       C  0.91034091  0.61203207  0.08371767     0.62170
F2327       F  0.82582807  0.61819305  0.21965565    -0.23000
F2328       F  0.87568500  0.60122842  0.23687128    -0.20330
F2329       F  0.83724746  0.56428273  0.21864675    -0.20010
F2330       F  0.93241979  0.63767602  0.08767755    -0.20060
F2331       F  0.89023223  0.61949604  0.05756124    -0.20380
F2332       F  0.92809007  0.58418338  0.07478018    -0.23060
C2333       C  0.88102058  0.31656744  0.88703812    -0.05890
C2334       C  0.88568584  0.28523420  0.87187288     0.00030
C2335       C  0.90776915  0.28650293  0.84473014    -0.08540
C2336       C  0.90893443  0.31507370  0.82540951    -0.05910
C2337       C  0.89846227  0.34583110  0.83751413     0.00020
C2338       C  0.88662930  0.34690372  0.87034404    -0.08450
C2339       C  0.87997560  0.37940416  0.88768175     0.61930
H2340       H  0.87385918  0.31770833  0.91229884     0.12630
H2341       H  0.92296946  0.31392955  0.80268571     0.12640
C2342       C  0.93701464  0.26391734  0.83997096     0.62170
F2343       F  0.86578449  0.37486181  0.91836472    -0.23000
F2344       F  0.85860063  0.39838563  0.86884773    -0.20330
F2345       F  0.90942405  0.39620181  0.89227889    -0.20010
F2346       F  0.93476616  0.24928900  0.80928060    -0.20060
F2347       F  0.94039544  0.24080154  0.86466211    -0.20380
F2348       F  0.96553600  0.28255051  0.84050558    -0.23060
C2349       C  0.65200737  0.38009330  0.13424933    -0.05890
C2350       C  0.62811550  0.39695008  0.11555537     0.00030
C2351       C  0.59625961  0.40247749  0.12931292    -0.08540
C2352       C  0.58940663  0.38958075  0.16074212    -0.05910
C2353       C  0.61257842  0.37049487  0.17822224     0.00020
C2354       C  0.64460040  0.36565579  0.16473095    -0.08450
C2355       C  0.67080502  0.34322980  0.17947267     0.61930
H2356       H  0.67651387  0.37658018  0.12407814     0.12630
H2357       H  0.56513367  0.39293972  0.17146086     0.12640
C2358       C  0.56909582  0.42084113  0.11092254     0.62170
F2359       F  0.68547739  0.32477169  0.15486902    -0.23000
F2360       F  0.65788067  0.32086332  0.20122193    -0.20330
F2361       F  0.69475404  0.36205623  0.19509836    -0.20010
F2362       F  0.56261473  0.40536090  0.08111081    -0.20060
F2363       F  0.57890666  0.45298726  0.10541561    -0.20380
F2364       F  0.53983525  0.42188774  0.12855990    -0.23060
C2365       C  0.59349734  0.53303466  0.12035169    -0.05890
C2366       C  0.62277468  0.54814376  0.10982169     0.00030
C2367       C  0.64013816  0.56933164  0.13191372    -0.08540
C2368       C  0.62686186  0.57462740  0.16361051    -0.05910
C2369       C  0.59818807  0.55833858  0.17430761     0.00020
C2370       C  0.58216318  0.53541595  0.15268803    -0.08450
C2371       C  0.55847080  0.50817797  0.16369689     0.61930
H2372       H  0.58055772  0.51670263  0.10357626     0.12630
H2373       H  0.63962203  0.59038274  0.18113567     0.12640
C2374       C  0.67288982  0.58533363  0.12305920     0.62170
F2375       F  0.53969321  0.49642997  0.13753446    -0.23000
F2376       F  0.53665709  0.51854178  0.18710863    -0.20330
F2377       F  0.57624750  0.48189910  0.17629304    -0.20010
F2378       F  0.66875986  0.60539070  0.09574991    -0.20060
F2379       F  0.69619884  0.56120270  0.11640812    -0.20380
F2380       F  0.68517035  0.60467614  0.14855372    -0.23060
C2381       C  0.60666933  0.51885456  0.86462466    -0.05890
C2382       C  0.61779431  0.54538139  0.88321489     0.00030
C2383       C  0.62237393  0.57610273  0.86736987    -0.08540
C2384       C  0.61503126  0.57850569  0.83315599    -0.05910
C2385       C  0.59764789  0.55335933  0.81617875     0.00020
C2386       C  0.59894937  0.52165566  0.83106206    -0.08450
C2387       C  0.59599319  0.49007048  0.81237178     0.61930
H2388       H  0.60511966  0.49507257  0.87663475     0.12630
H2389       H  0.62025421  0.60106164  0.82005698     0.12640
C2390       C  0.63023390  0.60690723  0.88713800     0.62170
F2391       F  0.60362536  0.46329137  0.83195337    -0.23000
F2392       F  0.61847096  0.48879520  0.78758367    -0.20330
F2393       F  0.56455055  0.48732893  0.80013593    -0.20010
F2394       F  0.66028396  0.60433178  0.90252239    -0.20060
F2395       F  0.60647213  0.61103388  0.91120136    -0.20380
F2396       F  0.63113860  0.63476521  0.86747034    -0.23060
C2397       C  0.59154962  0.40299759  0.87087168    -0.05890
C2398       C  0.61513726  0.38429604  0.88823881     0.00030
C2399       C  0.62790240  0.35502288  0.87360321    -0.08540
C2400       C  0.61951707  0.34821291  0.84074083    -0.05910
C2401       C  0.59831343  0.36854811  0.82233184     0.00020
C2402       C  0.58252221  0.39521732  0.83827016    -0.08450
C2403       C  0.55690241  0.41584481  0.82050855     0.61930
H2404       H  0.58076341  0.42443013  0.88266202     0.12630
H2405       H  0.62950145  0.32649393  0.82913589     0.12640
C2406       C  0.64997985  0.33054602  0.89188611     0.62170
F2407       F  0.54502474  0.44141417  0.83988448    -0.23000
F2408       F  0.53034358  0.39712108  0.81200950    -0.20330
F2409       F  0.57050550  0.42806162  0.79189939    -0.20010
F2410       F  0.63606530  0.32268417  0.92201051    -0.20060
F2411       F  0.68116813  0.34379640  0.89660659    -0.20380
F2412       F  0.65386481  0.30136981  0.87445118    -0.23060
C2413       C  0.82951247  0.35116008  0.06550762    -0.05890
C2414       C  0.79769981  0.35933013  0.07636576     0.00030
C2415       C  0.78120729  0.33699387  0.09758208    -0.08540
C2416       C  0.79487814  0.30566310  0.10356581    -0.05910
C2417       C  0.82630769  0.29655773  0.09221838     0.00020
C2418       C  0.84411730  0.32007382  0.07233585    -0.08450
C2419       C  0.87738278  0.31354432  0.05618164     0.61930
H2420       H  0.84206040  0.36835321  0.04938537     0.12630
H2421       H  0.78101424  0.28796393  0.11801920     0.12640
C2422       C  0.74875781  0.34520852  0.11414706     0.62170
F2423       F  0.87972550  0.32838305  0.02563055    -0.23000
F2424       F  0.88311518  0.28016725  0.05197312    -0.20330
F2425       F  0.90193226  0.32800621  0.07468609    -0.20010
F2426       F  0.72286127  0.33249668  0.09561601    -0.20060
F2427       F  0.74464106  0.37891494  0.11795022    -0.20380
F2428       F  0.74817569  0.33137151  0.14532516    -0.23060
C2429       C  0.81628667  0.58011811  0.89352868    -0.05890
C2430       C  0.78389179  0.58218886  0.90592191     0.00030
C2431       C  0.76621946  0.61267659  0.89964916    -0.08540
C2432       C  0.78426321  0.64085414  0.88964777    -0.05910
C2433       C  0.81803806  0.63788055  0.88250685     0.00020
C2434       C  0.82643860  0.60537742  0.87197598    -0.08450
C2435       C  0.81696955  0.59666075  0.83623683     0.61930
H2436       H  0.82831432  0.55624133  0.89249309     0.12630
H2437       H  0.77306994  0.66516238  0.89051053     0.12640
C2438       C  0.72905108  0.61535568  0.90033103     0.62170
F2439       F  0.84080109  0.57717943  0.82196371    -0.23000
F2440       F  0.81234443  0.62457046  0.81733051    -0.20330
F2441       F  0.78750012  0.57911584  0.83478916    -0.20010
F2442       F  0.71775882  0.61569428  0.93249676    -0.20060
F2443       F  0.71604517  0.58883793  0.88299850    -0.20380
F2444       F  0.71797333  0.64397901  0.88515453    -0.23060
C2445       C  0.82685865  0.62944827  0.05369163    -0.05890
C2446       C  0.82164262  0.64163065  0.08568625     0.00030
C2447       C  0.79997604  0.62393193  0.10688099    -0.08540
C2448       C  0.78910717  0.59249175  0.09705841    -0.05910
C2449       C  0.79845640  0.57844411  0.06691272     0.00020
C2450       C  0.81694536  0.59749958  0.04432499    -0.08450
C2451       C  0.82586058  0.58429614  0.01037504     0.61930
H2452       H  0.84056804  0.64460375  0.03654367     0.12630
H2453       H  0.77193596  0.57915829  0.11264518     0.12640
C2454       C  0.78489885  0.63759684  0.13829944     0.62170
F2455       F  0.84390357  0.60690577  0.99227823    -0.23000
F2456       F  0.79743153  0.57684462  0.99274938    -0.20330
F2457       F  0.84482607  0.55605827  0.01377997    -0.20010
F2458       F  0.79881102  0.66697477  0.14845926    -0.20060
F2459       F  0.78845849  0.61488363  0.16350338    -0.20380
F2460       F  0.75143948  0.64277499  0.13302676    -0.23060
C2461       C  0.80513727  0.33391807  0.94447665    -0.05890
C2462       C  0.79077435  0.35049064  0.91782672     0.00030
C2463       C  0.79134913  0.33541172  0.88637589    -0.08540
C2464       C  0.80690200  0.30421914  0.88271828    -0.05910
C2465       C  0.82118234  0.28700876  0.90971985     0.00020
C2466       C  0.82083209  0.30284705  0.94123199    -0.08450
C2467       C  0.84026926  0.29036542  0.97089865     0.61930
H2468       H  0.80419123  0.34622829  0.96822585     0.12630
H2469       H  0.80873046  0.29339258  0.85838844     0.12640
C2470       C  0.77565024  0.35246256  0.85695940     0.62170
F2471       F  0.83180108  0.30820011  0.99852433    -0.23000
F2472       F  0.87389672  0.29314349  0.96560821    -0.20330
F2473       F  0.83333483  0.25832201  0.97830034    -0.20010
F2474       F  0.79007081  0.38308887  0.85267725    -0.20060
F2475       F  0.74212907  0.35657360  0.86234787    -0.20380
F2476       F  0.77961559  0.33447122  0.82814476    -0.23060
C2477       C  0.29417770  0.34826995  0.87298653    -0.05890
C2478       C  0.30863168  0.37734743  0.88545583     0.00030
C2479       C  0.32842753  0.39674173  0.86405490    -0.08540
C2480       C  0.32985771  0.38802127  0.83051334    -0.05910
C2481       C  0.31668453  0.35832863  0.81812725     0.00020
C2482       C  0.29775047  0.33821026  0.83993530    -0.08450
C2483       C  0.27825901  0.30776023  0.82978441     0.61930
H2484       H  0.27902497  0.33332277  0.88913929     0.12630
H2485       H  0.34035849  0.40528637  0.81326655     0.12640
C2486       C  0.34841331  0.42632818  0.87583986     0.62170
F2487       F  0.24502716  0.31283246  0.83629715    -0.23000
F2488       F  0.28852437  0.28089747  0.84818242    -0.20330
F2489       F  0.28139403  0.30041713  0.79670360    -0.20010
F2490       F  0.36930064  0.41685173  0.90130643    -0.20060
F2491       F  0.32756548  0.45102136  0.88655863    -0.20380
F2492       F  0.36791132  0.43933277  0.85103107    -0.23060
C2493       C  0.28471638  0.54630285  0.13500666    -0.05890
C2494       C  0.30861297  0.53774575  0.11141539     0.00030
C2495       C  0.34250145  0.53894647  0.12017963    -0.08540
C2496       C  0.35092807  0.54499124  0.15322336    -0.05910
C2497       C  0.32710852  0.55275436  0.17739011     0.00020
C2498       C  0.29341017  0.55510329  0.16757265    -0.08450
C2499       C  0.26580775  0.56743857  0.18968188     0.61930
H2500       H  0.25885632  0.54580526  0.12805308     0.12630
H2501       H  0.37660258  0.54359866  0.16050777     0.12640
C2502       C  0.36987588  0.53530120  0.09477575     0.62170
F2503       F  0.25031624  0.59384087  0.17447324    -0.23000
F2504       F  0.27665961  0.57813799  0.22025257    -0.20330
F2505       F  0.24295166  0.54247760  0.19420916    -0.20010
F2506       F  0.36311776  0.55514554  0.06778809    -0.20060
F2507       F  0.37251753  0.50287965  0.08456118    -0.20380
F2508       F  0.40032000  0.54473683  0.10749618    -0.23060
C2509       C  0.33961638  0.39973417  0.16726486    -0.05890
C2510       C  0.32772622  0.37170637  0.18294755     0.00030
C2511       C  0.30476012  0.35097384  0.16595321    -0.08540
C2512       C  0.29435329  0.36012135  0.13407445    -0.05910
C2513       C  0.30745279  0.38779606  0.11797829     0.00020
C2514       C  0.33120448  0.40774602  0.13487198    -0.08450
C2515       C  0.34835367  0.43737061  0.11961148     0.61930
H2516       H  0.35938207  0.41298533  0.17935877     0.12630
H2517       H  0.27660664  0.34462901  0.12117484     0.12640
C2518       C  0.29087904  0.31880792  0.17909812     0.62170
F2519       F  0.37134300  0.45182660  0.14057950    -0.23000
F2520       F  0.32479543  0.46079935  0.11229128    -0.20330
F2521       F  0.36518960  0.42827328  0.09142086    -0.20010
F2522       F  0.30213526  0.31107763  0.21030479    -0.20060
F2523       F  0.29944661  0.29328914  0.15804590    -0.20380
F2524       F  0.25670557  0.32099052  0.18019486    -0.23060
C2525       C  0.29381995  0.51996002  0.86409243    -0.05890
C2526       C  0.31693915  0.52637568  0.88898745     0.00030
C2527       C  0.35117095  0.52735422  0.88110768    -0.08540
C2528       C  0.35991954  0.52875221  0.84755490    -0.05910
C2529       C  0.33521437  0.52933848  0.82309087     0.00020
C2530       C  0.30457441  0.51489073  0.83195283    -0.08450
C2531       C  0.29035203  0.48448700  0.81501189     0.61930
H2532       H  0.26895380  0.51235320  0.87069942     0.12630
H2533       H  0.38545074  0.53173460  0.84033538     0.12640
C2534       C  0.37790323  0.52752321  0.90758226     0.62170
F2535       F  0.28556258  0.45961359  0.83781027    -0.23000
F2536       F  0.31167210  0.47208509  0.79152924    -0.20330
F2537       F  0.25983205  0.49149311  0.80118451    -0.20010
F2538       F  0.37951889  0.49696454  0.92261062    -0.20060
F2539       F  0.37093096  0.55130074  0.93108574    -0.20380
F2540       F  0.40875026  0.53415628  0.89451924    -0.23060
C2541       C  0.15363991  0.31249395  0.90907605    -0.05890
C2542       C  0.13503630  0.33982158  0.92011238     0.00030
C2543       C  0.10024459  0.33599314  0.92259306    -0.08540
C2544       C  0.08627620  0.30454283  0.91638797    -0.05910
C2545       C  0.10441926  0.27762581  0.90322946     0.00020
C2546       C  0.13942374  0.28168245  0.90093381    -0.08450
C2547       C  0.16383733  0.25476751  0.89188812     0.61930
H2548       H  0.18032647  0.31485839  0.90747218     0.12630
H2549       H  0.06038890  0.30060567  0.92163277     0.12640
C2550       C  0.07746273  0.36470904  0.93070506     0.62170
F2551       F  0.18289651  0.26478540  0.86547257    -0.23000
F2552       F  0.14884976  0.22571411  0.88345647    -0.20330
F2553       F  0.18459963  0.24880721  0.91849182    -0.20010
F2554       F  0.08166632  0.38940048  0.90756896    -0.20060
F2555       F  0.08423285  0.37708138  0.96172247    -0.20380
F2556       F  0.04449471  0.35545882  0.93018158    -0.23060
C2557       C  0.13557146  0.61110354  0.11789168    -0.05890
C2558       C  0.11023946  0.62556648  0.09878185     0.00030
C2559       C  0.09575054  0.60541426  0.07346562    -0.08540
C2560       C  0.10950322  0.57410541  0.06647881    -0.05910
C2561       C  0.13710930  0.56213852  0.08326256     0.00020
C2562       C  0.15001570  0.58048208  0.10998739    -0.08450
C2563       C  0.18026747  0.56871943  0.12888422     0.61930
H2564       H  0.14560187  0.62455206  0.13828152     0.12630
H2565       H  0.10033055  0.55947014  0.04598141     0.12640
C2566       C  0.06633327  0.61591541  0.05295941     0.62170
F2567       F  0.18513640  0.58653533  0.15765574    -0.23000
F2568       F  0.20794064  0.57255758  0.10941766    -0.20330
F2569       F  0.17676128  0.53582045  0.13725452    -0.20010
F2570       F  0.07421381  0.64355222  0.03463454    -0.20060
F2571       F  0.03968054  0.62189451  0.07273690    -0.20380
F2572       F  0.05630654  0.59110050  0.03185323    -0.23060
C2573       C  0.14797326  0.32783350  0.10446723    -0.05890
C2574       C  0.13597880  0.34328863  0.07588993     0.00030
C2575       C  0.11382469  0.32590811  0.05503216    -0.08540
C2576       C  0.10307004  0.29438281  0.06448711    -0.05910
C2577       C  0.11324270  0.27967714  0.09420698     0.00020
C2578       C  0.13726081  0.29628715  0.11407769    -0.08450
C2579       C  0.15333911  0.28222906  0.14491547     0.61930
H2580       H  0.16681622  0.34027587  0.11907791     0.12630
H2581       H  0.08508629  0.28164800  0.04940817     0.12640
C2582       C  0.10228964  0.34016821  0.02244107     0.62170
F2583       F  0.18698941  0.27890785  0.13960389    -0.23000
F2584       F  0.14109362  0.25180858  0.15379993    -0.20330
F2585       F  0.14866880  0.30385166  0.17093614    -0.20010
F2586       F  0.12938454  0.34613489  0.00263172    -0.20060
F2587       F  0.08546638  0.36934982  0.02812666    -0.20380
F2588       F  0.08125442  0.31896698  0.00556622    -0.23060
C2589       C  0.10104542  0.57387334  0.93388708    -0.05890
C2590       C  0.13243810  0.56802834  0.92047453     0.00030
C2591       C  0.14575018  0.59188964  0.89867020    -0.08540
C2592       C  0.12862571  0.62182318  0.89374554    -0.05910
C2593       C  0.09847842  0.62942149  0.90952890     0.00020
C2594       C  0.08333381  0.60346566  0.92788022    -0.08450
C2595       C  0.04847400  0.60438197  0.94088777     0.61930
H2596       H  0.09027436  0.55525186  0.94974299     0.12630
H2597       H  0.13865446  0.63961991  0.87664649     0.12640
C2598       C  0.17786891  0.58591934  0.88016901     0.62170
F2599       F  0.04930689  0.60306877  0.97460899    -0.23000
F2600       F  0.03103433  0.57741233  0.92905971    -0.20330
F2601       F  0.03162332  0.63220508  0.93221806    -0.20010
F2602       F  0.17818670  0.55429641  0.86719227    -0.20060
F2603       F  0.20458048  0.58993163  0.90127144    -0.20380
F2604       F  0.18161873  0.60778207  0.85421693    -0.23060
C2605       C  0.70872260  0.98800531  0.16758236    -0.05890
C2606       C  0.74285977  0.99174454  0.16338317     0.00030
C2607       C  0.75376696  0.02072870  0.14665282    -0.08540
C2608       C  0.73010060  0.04558211  0.13849671    -0.05910
C2609       C  0.69570061  0.03868174  0.13788761     0.00020
C2610       C  0.68613445  0.00682188  0.14954941    -0.08450
C2611       C  0.65569732  0.98824775  0.13759309     0.61930
H2612       H  0.69950761  0.96627807  0.18002094     0.12630
H2613       H  0.73896983  0.06920153  0.13001584     0.12640
C2614       C  0.78870163  0.02581008  0.13446232     0.62170
F2615       F  0.66261091  0.95489273  0.13436510    -0.23000
F2616       F  0.64622410  0.99919248  0.10671989    -0.20330
F2617       F  0.63011601  0.99134606  0.15987015    -0.20010
F2618       F  0.78773548  0.03560600  0.10173763    -0.20060
F2619       F  0.80745114  0.99740976  0.13596839    -0.20380
F2620       F  0.80386435  0.05024008  0.15291850    -0.23060
C2621       C  0.71362671  0.88010480  0.15532424    -0.05890
C2622       C  0.70522984  0.88317775  0.12158539     0.00030
C2623       C  0.72128910  0.90921659  0.10420961    -0.08540
C2624       C  0.74298656  0.93099373  0.12153303    -0.05910
C2625       C  0.74788023  0.93008032  0.15622895     0.00020
C2626       C  0.73090510  0.90455736  0.17337397    -0.08450
C2627       C  0.72544448  0.90398639  0.21029550     0.61930
H2628       H  0.70371667  0.85967448  0.16902426     0.12630
H2629       H  0.75451706  0.95089785  0.10792110     0.12640
C2630       C  0.71670245  0.91556169  0.06768243     0.62170
F2631       F  0.69333333  0.89432446  0.21727601    -0.23000
F2632       F  0.72950593  0.93469347  0.22438443    -0.20330
F2633       F  0.74678857  0.88133308  0.22435230    -0.20010
F2634       F  0.69713192  0.94331335  0.06341625    -0.20060
F2635       F  0.70266652  0.88899040  0.05149680    -0.20380
F2636       F  0.74709688  0.92140895  0.05323683    -0.23060
C2637       C  0.82813026  0.87862653  0.22614260    -0.05890
C2638       C  0.82152701  0.88109560  0.26064761     0.00030
C2639       C  0.79835672  0.90661851  0.26922205    -0.08540
C2640       C  0.79393354  0.93338934  0.24779262    -0.05910
C2641       C  0.80141057  0.93210078  0.21412179     0.00020
C2642       C  0.81739780  0.90285349  0.20254524    -0.08450
C2643       C  0.82316246  0.89528664  0.16622919     0.61930
H2644       H  0.84093295  0.85730921  0.21679592     0.12630
H2645       H  0.77968672  0.95418875  0.25661816     0.12640
C2646       C  0.77070033  0.90259589  0.29456186     0.62170
F2647       F  0.80459234  0.86797506  0.15743419    -0.23000
F2648       F  0.85604839  0.88813747  0.16071555    -0.20330
F2649       F  0.81475016  0.92099330  0.14558677    -0.20010
F2650       F  0.78101745  0.91194907  0.32560302    -0.20060
F2651       F  0.75919464  0.87053179  0.29421501    -0.20380
F2652       F  0.74345970  0.92213753  0.28730320    -0.23060
C2653       C  0.77818877  0.01342532  0.22840207    -0.05890
C2654       C  0.80135324  0.99495444  0.21027542     0.00030
C2655       C  0.83537256  0.00450227  0.21344934    -0.08540
C2656       C  0.84471243  0.02960176  0.23629624    -0.05910
C2657       C  0.82168262  0.04529382  0.25705672     0.00020
C2658       C  0.78742544  0.03888812  0.25053949    -0.08450
C2659       C  0.75946913  0.05737569  0.26729813     0.61930
H2660       H  0.75235670  0.00639716  0.22701380     0.12630
H2661       H  0.87079677  0.03473026  0.24004783     0.12640
C2662       C  0.86338355  0.98869366  0.19437538     0.62170
F2663       F  0.73288011  0.06082072  0.24586228    -0.23000
F2664       F  0.76896638  0.08877985  0.27654215    -0.20330
F2665       F  0.74902994  0.03996283  0.29466424    -0.20010
F2666       F  0.88052999  0.01298545  0.17765921    -0.20060
F2667       F  0.85274475  0.96584274  0.17150904    -0.20380
F2668       F  0.88478512  0.97319987  0.21617895    -0.23060
C2669       C  0.91416776  0.74428734  0.15851339    -0.05890
C2670       C  0.94044235  0.72785174  0.17486489     0.00030
C2671       C  0.94076033  0.69301114  0.17230632    -0.08540
C2672       C  0.92073093  0.67768604  0.14877559    -0.05910
C2673       C  0.89201841  0.69234808  0.13468561     0.00020
C2674       C  0.88782675  0.72686767  0.14236002    -0.08450
C2675       C  0.85605945  0.74595322  0.13710385     0.61930
H2676       H  0.91354193  0.77096730  0.15905488     0.12630
H2677       H  0.92657376  0.65210035  0.14465609     0.12640
C2678       C  0.96104340  0.66999835  0.19401813     0.62170
F2679       F  0.85402573  0.77240122  0.15877107    -0.23000
F2680       F  0.82901649  0.72620910  0.14322590    -0.20330
F2681       F  0.85500291  0.75851212  0.10548855    -0.20010
F2682       F  0.94128105  0.64429881  0.20481318    -0.20060
F2683       F  0.97335822  0.68532004  0.22167506    -0.20380
F2684       F  0.98685670  0.65696343  0.17614307    -0.23060
C2685       C  0.05535351  0.70115496  0.17543168    -0.05890
C2686       C  0.05253277  0.69202143  0.14195807     0.00030
C2687       C  0.02463912  0.70509846  0.12429848    -0.08540
C2688       C  0.00260566  0.72653304  0.14045572    -0.05910
C2689       C  0.00308989  0.73211494  0.17478281     0.00020
C2690       C  0.03051383  0.71863561  0.19274494    -0.08450
C2691       C  0.03544975  0.71932512  0.22982922     0.61930
H2692       H  0.07568430  0.69144708  0.18967844     0.12630
H2693       H  0.98219631  0.73675337  0.12622762     0.12640
C2694       C  0.01473960  0.69673278  0.08909631     0.62170
F2695       F  0.03914092  0.68736947  0.24138534    -0.23000
F2696       F  0.00983467  0.73348077  0.24687684    -0.20330
F2697       F  0.06416564  0.73648475  0.23665376    -0.20010
F2698       F  0.03912063  0.68090157  0.07206251    -0.20060
F2699       F  0.00738626  0.72538524  0.07198019    -0.20380
F2700       F  0.98684231  0.67706043  0.08939139    -0.23060
C2701       C  0.99264149  0.80632389  0.25438595    -0.05890
C2702       C  0.99793483  0.79352908  0.22259354     0.00030
C2703       C  0.02996394  0.79970208  0.20887769    -0.08540
C2704       C  0.05625473  0.80977081  0.23043933    -0.05910
C2705       C  0.04967035  0.82494894  0.26125767     0.00020
C2706       C  0.01554683  0.82670648  0.27032563    -0.08450
C2707       C  0.00089684  0.85187849  0.29396361     0.61930
H2708       H  0.96893338  0.80305825  0.26620722     0.12630
H2709       H  0.08158418  0.80831781  0.22189524     0.12640
C2710       C  0.03665501  0.80128930  0.17217896     0.62170
F2711       F  0.99785316  0.83899007  0.32493983    -0.23000
F2712       F  0.96947843  0.86076368  0.28419801    -0.20330
F2713       F  0.01914933  0.88038226  0.29489982    -0.20010
F2714       F  0.04989329  0.83182842  0.16479745    -0.20060
F2715       F  0.00807308  0.79793496  0.15357273    -0.20380
F2716       F  0.05937728  0.77741775  0.16322039    -0.23060
C2717       C  0.88074357  0.78862625  0.24479083    -0.05890
C2718       C  0.88042497  0.82304944  0.25013750     0.00030
C2719       C  0.90561160  0.84140662  0.23324040    -0.08540
C2720       C  0.92958069  0.82403460  0.21425821    -0.05910
C2721       C  0.93430325  0.78952045  0.21712636     0.00020
C2722       C  0.90951334  0.77184211  0.23471205    -0.08450
C2723       C  0.91438784  0.73773327  0.24950049     0.61930
H2724       H  0.86145344  0.77401158  0.25566153     0.12630
H2725       H  0.94792162  0.83804436  0.20076824     0.12640
C2726       C  0.90936004  0.87868611  0.23415684     0.62170
F2727       F  0.90026348  0.73602339  0.28055317    -0.23000
F2728       F  0.94732745  0.73063508  0.25394856    -0.20330
F2729       F  0.89951651  0.71412884  0.22975590    -0.20010
F2730       F  0.89179221  0.89294111  0.25921803    -0.20060
F2731       F  0.89891098  0.89182614  0.20461401    -0.20380
F2732       F  0.94210795  0.88760910  0.23806793    -0.23060
C2733       C  0.10199658  0.92156908  0.77397028    -0.05890
C2734       C  0.13693586  0.92412368  0.77628130     0.00030
C2735       C  0.15570272  0.89819225  0.76108336    -0.08540
C2736       C  0.13885732  0.87257270  0.74438494    -0.05910
C2737       C  0.10475074  0.87355770  0.73736792     0.00020
C2738       C  0.08571032  0.89853846  0.75302296    -0.08450
C2739       C  0.04870597  0.90239024  0.74731698     0.61930
H2740       H  0.08738245  0.94026102  0.78633371     0.12630
H2741       H  0.15347288  0.85352063  0.73256974     0.12640
C2742       C  0.19297674  0.89698782  0.75733910     0.62170
F2743       F  0.03782029  0.93354390  0.75633679    -0.23000
F2744       F  0.03207148  0.87965984  0.76627073    -0.20330
F2745       F  0.04042214  0.89792201  0.71447913    -0.20010
F2746       F  0.20576840  0.87174558  0.77649641    -0.20060
F2747       F  0.20793994  0.92583539  0.76595244    -0.20380
F2748       F  0.20106744  0.89103508  0.72465601    -0.23060
C2749       C  0.10033625  0.00287234  0.72357023    -0.05890
C2750       C  0.09132136  0.03409195  0.73664212     0.00030
C2751       C  0.10293439  0.04011536  0.76995269    -0.08540
C2752       C  0.11931489  0.01408806  0.78755087    -0.05910
C2753       C  0.13334415  0.98682721  0.77092451     0.00020
C2754       C  0.12670699  0.98475756  0.73676693    -0.08450
C2755       C  0.15038630  0.96848855  0.71279373     0.61930
H2756       H  0.09183443  0.99538317  0.69938058     0.12630
H2757       H  0.12281868  0.01619026  0.81394928     0.12640
C2758       C  0.10215491  0.07342092  0.78672707     0.62170
F2759       F  0.15219647  0.98652468  0.68386739    -0.23000
F2760       F  0.13983991  0.93719942  0.70503496    -0.20330
F2761       F  0.18198845  0.96720184  0.72586248    -0.20010
F2762       F  0.07108618  0.07981817  0.79906483    -0.20060
F2763       F  0.11156199  0.09733189  0.76470989    -0.20380
F2764       F  0.12427546  0.07487364  0.81298723    -0.23060
C2765       C  0.20373593  0.02775616  0.87505532    -0.05890
C2766       C  0.22380868  0.04751570  0.85465538     0.00030
C2767       C  0.21823506  0.04444025  0.81963940    -0.08540
C2768       C  0.19740597  0.01894050  0.80730212    -0.05910
C2769       C  0.18209101  0.99592168  0.82807993     0.00020
C2770       C  0.18267130  0.00274623  0.86249972    -0.08450
C2771       C  0.16234330  0.98346352  0.88719373     0.61930
H2772       H  0.20586678  0.02987108  0.90141786     0.12630
H2773       H  0.19620899  0.01451385  0.78093273     0.12640
C2774       C  0.23650632  0.06442459  0.79389944     0.62170
F2775       F  0.18312635  0.96405648  0.90626290    -0.23000
F2776       F  0.13885267  0.96357991  0.87216243    -0.20330
F2777       F  0.14575711  0.00527858  0.90759862    -0.20010
F2778       F  0.26593638  0.04884977  0.78621547    -0.20060
F2779       F  0.24266480  0.09606454  0.80459681    -0.20380
F2780       F  0.21783926  0.06709524  0.76521320    -0.23060
C2781       C  0.17641129  0.90362475  0.84050595    -0.05890
C2782       C  0.19169921  0.93344254  0.83087494     0.00030
C2783       C  0.22562458  0.93705637  0.83947361    -0.08540
C2784       C  0.23931269  0.91609452  0.86333637    -0.05910
C2785       C  0.22704092  0.88404789  0.86905937     0.00020
C2786       C  0.19480590  0.87728394  0.85538278    -0.08450
C2787       C  0.18053297  0.84289793  0.85249451     0.61930
H2788       H  0.15052318  0.90005559  0.83465444     0.12630
H2789       H  0.26343230  0.92262633  0.87269086     0.12640
C2790       C  0.25004727  0.95932226  0.82150642     0.62170
F2791       F  0.15502274  0.84169358  0.82951768    -0.23000
F2792       F  0.16787347  0.83278863  0.88231334    -0.20330
F2793       F  0.20462478  0.82137765  0.84184475    -0.20010
F2794       F  0.25629135  0.98687761  0.84005164    -0.20060
F2795       F  0.23921179  0.96930419  0.79085889    -0.20380
F2796       F  0.27965480  0.94273716  0.81666105    -0.23060
C2797       C  0.01114326  0.14159313  0.77479375    -0.05890
C2798       C  0.98714759  0.12010140  0.78733014     0.00030
C2799       C  0.99148442  0.08593788  0.77922226    -0.08540
C2800       C  0.01635434  0.07601637  0.75624767    -0.05910
C2801       C  0.03901829  0.09851186  0.74224311     0.00020
C2802       C  0.03692852  0.13200089  0.75341091    -0.08450
C2803       C  0.05924036  0.15951481  0.74111605     0.61930
H2804       H  0.00717870  0.16727443  0.77728735     0.12630
H2805       H  0.01746969  0.05039917  0.74857856     0.12640
C2806       C  0.96991101  0.05895096  0.79339589     0.62170
F2807       F  0.05690530  0.18739453  0.76047123    -0.23000
F2808       F  0.05041542  0.16833200  0.70939198    -0.20330
F2809       F  0.09183609  0.15042908  0.74269338    -0.20010
F2810       F  0.95002621  0.07011163  0.81874612    -0.20060
F2811       F  0.98985923  0.03414046  0.80598286    -0.20380
F2812       F  0.95010945  0.04588743  0.76866340    -0.23060
C2813       C  0.89179977  0.11757979  0.79119083    -0.05890
C2814       C  0.92371700  0.12468680  0.77873540     0.00030
C2815       C  0.92727535  0.12079760  0.74424194    -0.08540
C2816       C  0.90527685  0.10029110  0.72704793    -0.05910
C2817       C  0.87207303  0.09634358  0.73723892     0.00020
C2818       C  0.86493923  0.10858505  0.76989176    -0.08450
C2819       C  0.83055753  0.11483035  0.78349757     0.61930
H2820       H  0.88669728  0.12113987  0.81702657     0.12630
H2821       H  0.91265745  0.09292752  0.70249355     0.12640
C2822       C  0.94839637  0.14363834  0.72355784     0.62170
F2823       F  0.82676326  0.09808016  0.81287876    -0.23000
F2824       F  0.80560405  0.10539568  0.76214445    -0.20330
F2825       F  0.82702917  0.14820068  0.78990369    -0.20010
F2826       F  0.97626518  0.12735384  0.71318420    -0.20060
F2827       F  0.95711905  0.17182941  0.74079966    -0.20380
F2828       F  0.93095598  0.15376631  0.69583001    -0.23060
C2829       C  0.90044662  0.19229259  0.81808078    -0.05890
C2830       C  0.91868885  0.17059350  0.83831106     0.00030
C2831       C  0.90837370  0.16819072  0.87135943    -0.08540
C2832       C  0.89312647  0.19573533  0.88592998    -0.05910
C2833       C  0.87743720  0.22036176  0.86677612     0.00020
C2834       C  0.87716504  0.21494389  0.83178265    -0.08450
C2835       C  0.85192303  0.23121013  0.80910287     0.61930
H2836       H  0.90507509  0.19205584  0.79178446     0.12630
H2837       H  0.89519252  0.19764374  0.91204137     0.12640
C2838       C  0.90420548  0.13516262  0.88829576     0.62170
F2839       F  0.85883171  0.22512293  0.77619431    -0.23000
F2840       F  0.82116617  0.21808647  0.81567115    -0.20330
F2841       F  0.85052590  0.26492866  0.81348125    -0.20010
F2842       F  0.91896362  0.13523563  0.91907442    -0.20060
F2843       F  0.91678332  0.10942994  0.86971830    -0.20380
F2844       F  0.87072789  0.12934218  0.89244105    -0.23060
C2845       C  0.98968326  0.20393352  0.81966669    -0.05890
C2846       C  0.98118096  0.17722713  0.83953374     0.00030
C2847       C  0.99625298  0.17670690  0.87163682    -0.08540
C2848       C  0.01817346  0.20268634  0.88158366    -0.05910
C2849       C  0.03231405  0.22476673  0.85862701     0.00020
C2850       C  0.01678903  0.22499679  0.82624384    -0.08450
C2851       C  0.02814969  0.24568344  0.79693165     0.61930
H2852       H  0.97568043  0.20686133  0.79699016     0.12630
H2853       H  0.02723746  0.20298015  0.90676575     0.12640
C2854       C  0.99214175  0.14888077  0.89591359     0.62170
F2855       F  0.01409676  0.23529634  0.76739431    -0.23000
F2856       F  0.06182843  0.24265292  0.79345187    -0.20330
F2857       F  0.01920994  0.27833071  0.80047256    -0.20010
F2858       F  0.97587430  0.12232965  0.88216715    -0.20060
F2859       F  0.97536228  0.16040661  0.92323555    -0.20380
F2860       F  0.02285919  0.13773837  0.90626102    -0.23060
C2861       C  0.71342477  0.13370042  0.09226198    -0.05890
C2862       C  0.70331078  0.10082688  0.08846782     0.00030
C2863       C  0.71214973  0.08437084  0.05878754    -0.08540
C2864       C  0.72930532  0.10228199  0.03414983    -0.05910
C2865       C  0.73318892  0.13716130  0.03493068     0.00020
C2866       C  0.72345318  0.15308534  0.06515668    -0.08450
C2867       C  0.71748115  0.18961725  0.07031657     0.61930
H2868       H  0.70652402  0.14619553  0.11494591     0.12630
H2869       H  0.73768742  0.08896361  0.01270999     0.12640
C2870       C  0.70138812  0.04903710  0.05153160     0.62170
F2871       F  0.68567172  0.19453345  0.08201822    -0.23000
F2872       F  0.71985830  0.20720196  0.04192941    -0.20330
F2873       F  0.73959973  0.20201001  0.09334001    -0.20010
F2874       F  0.66749303  0.04595648  0.05487751    -0.20060
F2875       F  0.71698944  0.02743299  0.07275505    -0.20380
F2876       F  0.70940570  0.03944154  0.01975558    -0.23060
C2877       C  0.74484828  0.11309794  0.95441328    -0.05890
C2878       C  0.72898894  0.13916831  0.97124899     0.00030
C2879       C  0.69752064  0.14934885  0.95888357    -0.08540
C2880       C  0.68198692  0.13003132  0.93446773    -0.05910
C2881       C  0.69461873  0.09970410  0.92236714     0.00020
C2882       C  0.72946211  0.09542004  0.92798751    -0.08450
C2883       C  0.75306254  0.08460724  0.90109250     0.61930
H2884       H  0.77036800  0.10763543  0.96085277     0.12630
H2885       H  0.65877847  0.13897084  0.92497550     0.12640
C2886       C  0.67950517  0.18056787  0.96995729     0.62170
F2887       F  0.78007556  0.10566945  0.89976964    -0.23000
F2888       F  0.73812367  0.08615809  0.87046252    -0.20330
F2889       F  0.76500306  0.05339439  0.90741639    -0.20010
F2890       F  0.69404165  0.20809775  0.95653224    -0.20060
F2891       F  0.67937010  0.18285969  0.00378866    -0.20380
F2892       F  0.64678137  0.18117940  0.95952994    -0.23060
C2893       C  0.80061694  0.18037465  0.05721322    -0.05890
C2894       C  0.78550834  0.19478895  0.02919901     0.00030
C2895       C  0.78588925  0.22963690  0.02741251    -0.08540
C2896       C  0.80744731  0.24718538  0.04802613    -0.05910
C2897       C  0.82177187  0.23443934  0.07766319     0.00020
C2898       C  0.81486041  0.19986208  0.08330805    -0.08450
C2899       C  0.81637875  0.18308285  0.11668845     0.61930
H2900       H  0.79894827  0.15383499  0.05998950     0.12630
H2901       H  0.80969393  0.27274178  0.04154888     0.12640
C2902       C  0.76050198  0.25026382  0.00818269     0.62170
F2903       F  0.79047318  0.16093672  0.11988674    -0.23000
F2904       F  0.81301242  0.20549357  0.14200011    -0.20330
F2905       F  0.84547303  0.16547226  0.11988872    -0.20010
F2906       F  0.74228327  0.26872211  0.03043753    -0.20060
F2907       F  0.73874964  0.23155639  0.99015238    -0.20380
F2908       F  0.77506538  0.27187106  0.98671970    -0.23060
C2909       C  0.77258755  0.19680642  0.94079229    -0.05890
C2910       C  0.78985636  0.18282935  0.96759461     0.00030
C2911       C  0.82494971  0.18423153  0.96601994    -0.08540
C2912       C  0.84034602  0.20605559  0.94360202    -0.05910
C2913       C  0.82273056  0.22369472  0.91908806     0.00020
C2914       C  0.78824102  0.21627493  0.91629871    -0.08450
C2915       C  0.76619669  0.23001193  0.88934986     0.61930
H2916       H  0.74625866  0.19415237  0.93959036     0.12630
H2917       H  0.86541034  0.21314421  0.94938222     0.12640
C2918       C  0.84723162  0.16419516  0.98855241     0.62170
F2919       F  0.74405297  0.20608270  0.87880236    -0.23000
F2920       F  0.78415550  0.23960569  0.86226310    -0.20330
F2921       F  0.74858410  0.25666512  0.90145736    -0.20010
F2922       F  0.83019671  0.13924476  0.00435303    -0.20060
F2923       F  0.86183315  0.18465287  0.01179597    -0.20380
F2924       F  0.87183519  0.14946999  0.97000578    -0.23060
C2925       C  0.15872315  0.71014641  0.05421003    -0.05890
C2926       C  0.13773970  0.73311860  0.03896535     0.00030
C2927       C  0.10705379  0.73955076  0.05492034    -0.08540
C2928       C  0.09610125  0.71793415  0.08003327    -0.05910
C2929       C  0.11437566  0.69014764  0.09061934     0.00020
C2930       C  0.14850107  0.69059137  0.08120191    -0.08450
C2931       C  0.17597581  0.67806210  0.10346507     0.61930
H2932       H  0.18421597  0.70887397  0.04655346     0.12630
H2933       H  0.07319120  0.72395077  0.09138416     0.12640
C2934       C  0.08554808  0.76960185  0.04824451     0.62170
F2935       F  0.20259708  0.69954365  0.10310386    -0.23000
F2936       F  0.18695858  0.64762485  0.09268521    -0.20330
F2937       F  0.16567100  0.67671883  0.13583136    -0.20010
F2938       F  0.05457666  0.75964681  0.03748850    -0.20060
F2939       F  0.09887618  0.79053153  0.02504447    -0.20380
F2940       F  0.08182071  0.78730774  0.07725682    -0.23060
C2941       C  0.09795910  0.73172994  0.97116890    -0.05890
C2942       C  0.13254211  0.72997464  0.97591772     0.00030
C2943       C  0.14870209  0.70538589  0.95635731    -0.08540
C2944       C  0.13217352  0.69164062  0.92882757    -0.05910
C2945       C  0.09735473  0.69095109  0.92545451     0.00020
C2946       C  0.08003913  0.71039515  0.94947309    -0.08450
C2947       C  0.04326493  0.70946302  0.95510005     0.61930
H2948       H  0.08396146  0.74816865  0.98648043     0.12630
H2949       H  0.14720757  0.67790989  0.91194227     0.12640
C2950       C  0.18092132  0.68811051  0.96504654     0.62170
F2951       F  0.03709552  0.69620840  0.98591519    -0.23000
F2952       F  0.02745510  0.69075832  0.93197956    -0.20330
F2953       F  0.03028970  0.74108039  0.95398487    -0.20010
F2954       F  0.19636641  0.70165425  0.99182191    -0.20060
F2955       F  0.20251484  0.68902698  0.93864454    -0.20380
F2956       F  0.17427442  0.65539674  0.97222313    -0.23060
C2957       C  0.17326763  0.79766956  0.06540293    -0.05890
C2958       C  0.18814222  0.78891875  0.03484945     0.00030
C2959       C  0.22195392  0.79695529  0.03185818    -0.08540
C2960       C  0.23553423  0.82069543  0.05300541    -0.05910
C2961       C  0.22485044  0.82401763  0.08589465     0.00020
C2962       C  0.19213935  0.81171516  0.09219698    -0.08450
C2963       C  0.17589811  0.81170895  0.12576636     0.61930
H2964       H  0.14753512  0.79208931  0.06934476     0.12630
H2965       H  0.25885477  0.83101533  0.04601461     0.12640
C2966       C  0.24603468  0.77397780  0.01452928     0.62170
F2967       F  0.14849790  0.83214183  0.12497451    -0.23000
F2968       F  0.19671918  0.82211995  0.15072461    -0.20330
F2969       F  0.16564569  0.78000452  0.13320177    -0.20010
F2970       F  0.25180737  0.78410085  0.98272993    -0.20060
F2971       F  0.23401772  0.74230685  0.01408682    -0.20380
F2972       F  0.27602191  0.77267255  0.03123492    -0.23060
C2973       C  0.19491205  0.77323592  0.94716397    -0.05890
C2974       C  0.17957824  0.79219921  0.97163613     0.00030
C2975       C  0.18193211  0.82733796  0.96764526    -0.08540
C2976       C  0.20303102  0.84103208  0.94300238    -0.05910
C2977       C  0.22206365  0.82118194  0.92164533     0.00020
C2978       C  0.21470719  0.78664976  0.92183552    -0.08450
C2979       C  0.22862042  0.76199764  0.89736270     0.61930
H2980       H  0.19489245  0.74717413  0.94969495     0.12630
H2981       H  0.20634400  0.86756685  0.94201853     0.12640
C2982       C  0.16374237  0.85176609  0.98931829     0.62170
F2983       F  0.20487809  0.73854209  0.88961341    -0.23000
F2984       F  0.25574523  0.74622398  0.91111957    -0.20330
F2985       F  0.23742757  0.77661877  0.86813848    -0.20010
F2986       F  0.18630312  0.86878135  0.00870773    -0.20060
F2987       F  0.14086900  0.83684322  0.00951467    -0.20380
F2988       F  0.14690045  0.87408499  0.96957156    -0.23060
C2989       C  0.25232637  0.52812609  0.67135228    -0.05890
C2990       C  0.25242630  0.49678481  0.65577643     0.00030
C2991       C  0.23700031  0.49685189  0.62399245    -0.08540
C2992       C  0.21181902  0.51984623  0.61683009    -0.05910
C2993       C  0.20792754  0.54876344  0.63544628     0.00020
C2994       C  0.23051177  0.55407776  0.66220704    -0.08450
C2995       C  0.23525467  0.58702704  0.67984011     0.61930
H2996       H  0.27178702  0.53488359  0.68770580     0.12630
H2997       H  0.19775134  0.51717360  0.59409491     0.12640
C2998       C  0.25394574  0.48262176  0.59395527     0.62170
F2999       F  0.22501894  0.58529566  0.71200103    -0.23000
F3000       F  0.21803218  0.61220652  0.66490884    -0.20330
F3001       F  0.26850545  0.59535718  0.68037953    -0.20010
F3002       F  0.23569127  0.45675674  0.58162535    -0.20060
F3003       F  0.28601121  0.47296417  0.60102785    -0.20380
F3004       F  0.25603426  0.50625257  0.56935605    -0.23060
C3005       C  0.25713007  0.41586819  0.63589788    -0.05890
C3006       C  0.24475035  0.43338616  0.66237968     0.00030
C3007       C  0.21559046  0.42124984  0.67726095    -0.08540
C3008       C  0.20080411  0.39255873  0.66406357    -0.05910
C3009       C  0.20782807  0.38063012  0.63170178     0.00020
C3010       C  0.23837147  0.39273795  0.61816457    -0.08450
C3011       C  0.25077323  0.38609572  0.58418504     0.61930
H3012       H  0.28035606  0.42360609  0.62644002     0.12630
H3013       H  0.18021243  0.38242865  0.67768634     0.12640
C3014       C  0.19779191  0.43745622  0.70582855     0.62170
F3015       F  0.27898015  0.40360027  0.57575023    -0.23000
F3016       F  0.22638419  0.39608178  0.56268902    -0.20330
F3017       F  0.25937032  0.35349181  0.58201604    -0.20010
F3018       F  0.21359747  0.46514731  0.71752995    -0.20060
F3019       F  0.19469640  0.41500351  0.73108846    -0.20380
F3020       F  0.16628975  0.44659666  0.69614558    -0.23060
C3021       C  0.27786620  0.42183877  0.74310985    -0.05890
C3022       C  0.29416110  0.42586490  0.71301064     0.00030
C3023       C  0.31405955  0.39889331  0.70188241    -0.08540
C3024       C  0.31997883  0.37172649  0.72332393    -0.05910
C3025       C  0.30843704  0.37075532  0.75605739     0.00020
C3026       C  0.28236727  0.39406276  0.76350589    -0.08450
C3027       C  0.25505982  0.38805849  0.78881710     0.61930
H3028       H  0.26080262  0.44090660  0.75078626     0.12630
H3029       H  0.33394172  0.35126318  0.71394549     0.12640
C3030       C  0.33107995  0.39737292  0.66869367     0.62170
F3031       F  0.22683153  0.40588271  0.78169560    -0.23000
F3032       F  0.26411454  0.39770048  0.82017981    -0.20330
F3033       F  0.24603754  0.35532164  0.78818889    -0.20010
F3034       F  0.36421308  0.39043366  0.67327409    -0.20060
F3035       F  0.32928646  0.42654978  0.65158427    -0.20380
F3036       F  0.31713158  0.37244916  0.64983867    -0.23060
C3037       C  0.28207363  0.50517904  0.73551955    -0.05890
C3038       C  0.30378461  0.48706515  0.71553044     0.00030
C3039       C  0.33839856  0.49224971  0.71992592    -0.08540
C3040       C  0.34909085  0.51279202  0.74575592    -0.05910
C3041       C  0.32716436  0.53406490  0.76190510     0.00020
C3042       C  0.29294573  0.53178382  0.75481983    -0.08450
C3043       C  0.26771737  0.55660135  0.76730532     0.61930
H3044       H  0.25596083  0.50039624  0.73353642     0.12630
H3045       H  0.37505345  0.51359245  0.75268119     0.12640
C3046       C  0.36441389  0.47669148  0.69836794     0.62170
F3047       F  0.23576726  0.54764366  0.75872505    -0.23000
F3048       F  0.27465313  0.58701515  0.75363617    -0.20330
F3049       F  0.26814161  0.55927951  0.80107055    -0.20010
F3050       F  0.35560322  0.48021132  0.66556186    -0.20060
F3051       F  0.36802578  0.44401268  0.70669460    -0.20380
F3052       F  0.39497060  0.49165558  0.70255202    -0.23060
C3053       C  0.38204272  0.20867853  0.66546763    -0.05890
C3054       C  0.38116123  0.20706196  0.63081220     0.00030
C3055       C  0.40257022  0.22944918  0.61334720    -0.08540
C3056       C  0.42608235  0.24748550  0.63256779    -0.05910
C3057       C  0.43429788  0.23736746  0.66495871     0.00020
C3058       C  0.41175036  0.21584737  0.68139027    -0.08450
C3059       C  0.41966018  0.19367049  0.71102815     0.61930
H3060       H  0.36423640  0.19461487  0.67937828     0.12630
H3061       H  0.44243924  0.26483298  0.62054078     0.12640
C3062       C  0.40708046  0.23056336  0.57564010     0.62170
F3063       F  0.41903006  0.16092490  0.70159567    -0.23000
F3064       F  0.39603827  0.19664343  0.73530381    -0.20330
F3065       F  0.45034037  0.19986639  0.72423854    -0.20010
F3066       F  0.38665107  0.25339786  0.56132306    -0.20060
F3067       F  0.40139689  0.20035557  0.56122553    -0.20380
F3068       F  0.43883439  0.24006046  0.56705025    -0.23060
C3069       C  0.53232538  0.24650421  0.67499953    -0.05890
C3070       C  0.50042746  0.23409414  0.66528395     0.00030
C3071       C  0.50307726  0.20674030  0.64184646    -0.08540
C3072       C  0.53400578  0.19557467  0.63130170    -0.05910
C3073       C  0.56216544  0.20079579  0.64959545     0.00020
C3074       C  0.56214572  0.22781212  0.67140872    -0.08450
C3075       C  0.59394528  0.23857461  0.68784425     0.61930
H3076       H  0.53515110  0.27074095  0.68492118     0.12630
H3077       H  0.53624418  0.17808035  0.61121459     0.12640
C3078       C  0.47617464  0.18412737  0.62997182     0.62170
F3079       F  0.58862864  0.26246817  0.71147861    -0.23000
F3080       F  0.61455719  0.25172951  0.66429607    -0.20330
F3081       F  0.60921550  0.21196221  0.70295871    -0.20010
F3082       F  0.45854925  0.19847597  0.60555565    -0.20060
F3083       F  0.45752298  0.17544061  0.65637238    -0.20380
F3084       F  0.48768036  0.15525100  0.61561522    -0.23060
C3085       C  0.49989711  0.32234377  0.71415373    -0.05890
C3086       C  0.49278092  0.28922105  0.72109801     0.00030
C3087       C  0.51385105  0.27260957  0.74371187    -0.08540
C3088       C  0.54267294  0.28882650  0.75445996    -0.05910
C3089       C  0.54607574  0.32352632  0.75345154     0.00020
C3090       C  0.52316390  0.34075340  0.73236744    -0.08450
C3091       C  0.51787525  0.37779147  0.72976975     0.61930
H3092       H  0.48510273  0.33530216  0.69645554     0.12630
H3093       H  0.56075212  0.27465086  0.76802949     0.12640
C3094       C  0.50628555  0.23872264  0.75764330     0.62170
F3095       F  0.52409563  0.38769822  0.69779313    -0.23000
F3096       F  0.53737490  0.39552025  0.75091710    -0.20330
F3097       F  0.48525167  0.38555830  0.73681229    -0.20010
F3098       F  0.50959794  0.21482623  0.73363309    -0.20060
F3099       F  0.47456900  0.23850259  0.77014524    -0.20380
F3100       F  0.52748281  0.23052337  0.78337020    -0.23060
C3101       C  0.41019128  0.26949398  0.73758915    -0.05890
C3102       C  0.42962008  0.28771348  0.71559220     0.00030
C3103       C  0.41685701  0.31974527  0.70770396    -0.08540
C3104       C  0.39233456  0.33439916  0.72875565    -0.05910
C3105       C  0.37208628  0.31475142  0.74948762     0.00020
C3106       C  0.37865155  0.28044826  0.74783791    -0.08450
C3107       C  0.35163413  0.25504051  0.75213355     0.61930
H3108       H  0.41895018  0.24622338  0.74613372     0.12630
H3109       H  0.38830420  0.36078901  0.72778258     0.12640
C3110       C  0.42445285  0.33696550  0.67550351     0.62170
F3111       F  0.34775989  0.23776146  0.72298998    -0.23000
F3112       F  0.32141968  0.26948835  0.75864317    -0.20330
F3113       F  0.35986408  0.23311951  0.77698565    -0.20010
F3114       F  0.44713408  0.31995950  0.65650670    -0.20060
F3115       F  0.43604832  0.36853846  0.68156558    -0.20380
F3116       F  0.39563711  0.33887561  0.65709100    -0.23060
C3117       C  0.64880658  0.39750680  0.27725895    -0.05890
C3118       C  0.63089436  0.42735397  0.28143933     0.00030
C3119       C  0.59786304  0.42651562  0.26923029    -0.08540
C3120       C  0.58942442  0.40359749  0.24449538    -0.05910
C3121       C  0.60778559  0.37452681  0.23997005     0.00020
C3122       C  0.63553500  0.36982037  0.26089227    -0.08450
C3123       C  0.65067481  0.33664332  0.26914471     0.61930
H3124       H  0.67374155  0.39479285  0.28494598     0.12630
H3125       H  0.56678836  0.40714586  0.23041395     0.12640
C3126       C  0.57029389  0.44776303  0.28220280     0.62170
F3127       F  0.65099416  0.33281919  0.30308071    -0.23000
F3128       F  0.68301415  0.33521738  0.25818679    -0.20330
F3129       F  0.63271192  0.31072306  0.25612302    -0.20010
F3130       F  0.55916486  0.46764150  0.25707614    -0.20060
F3131       F  0.57981781  0.46659216  0.30909353    -0.20380
F3132       F  0.54446658  0.42778360  0.29215493    -0.23060
C3133       C  0.62210546  0.51795688  0.28778795    -0.05890
C3134       C  0.63568988  0.48969258  0.27237893     0.00030
C3135       C  0.63819041  0.48924469  0.23762199    -0.08540
C3136       C  0.62344983  0.51442939  0.22001494    -0.05910
C3137       C  0.60718943  0.54194421  0.23429423     0.00020
C3138       C  0.61041343  0.54537469  0.26928180    -0.08450
C3139       C  0.60715112  0.57768527  0.28790942     0.61930
H3140       H  0.62201722  0.51930883  0.31451133     0.12630
H3141       H  0.62576329  0.51152734  0.19376941     0.12640
C3142       C  0.65651774  0.46369993  0.21660792     0.62170
F3143       F  0.63536368  0.58278865  0.30679111    -0.23000
F3144       F  0.58040337  0.57659186  0.30895328    -0.20330
F3145       F  0.60418376  0.60434836  0.26712515    -0.20010
F3146       F  0.63384405  0.44573445  0.19828984    -0.20060
F3147       F  0.67576870  0.44214888  0.23432998    -0.20380
F3148       F  0.67750840  0.47977345  0.19501111    -0.23060
C3149       C  0.68379972  0.49473798  0.36578804    -0.05890
C3150       C  0.68378063  0.49577143  0.33097686     0.00030
C3151       C  0.69715191  0.52473663  0.31603425    -0.08540
C3152       C  0.70847469  0.55061655  0.33671604    -0.05910
C3153       C  0.71652287  0.54492000  0.37012905     0.00020
C3154       C  0.70193011  0.51700541  0.38536793    -0.08450
C3155       C  0.70698639  0.50785218  0.42128186     0.61930
H3156       H  0.67221420  0.47419182  0.37800272     0.12630
H3157       H  0.71639071  0.57345236  0.32543862     0.12640
C3158       C  0.70457976  0.52868860  0.27957528     0.62170
F3159       F  0.67962362  0.49140480  0.43345767    -0.23000
F3160       F  0.71166181  0.53535519  0.44081462    -0.20330
F3161       F  0.73386761  0.48692304  0.42383225    -0.20010
F3162       F  0.68397080  0.55221247  0.26581141    -0.20060
F3163       F  0.70179100  0.49973309  0.26227414    -0.20380
F3164       F  0.73679506  0.53906157  0.27571762    -0.23060
C3165       C  0.72519588  0.38772297  0.32401735    -0.05890
C3166       C  0.71368992  0.37297788  0.35370107     0.00030
C3167       C  0.68298149  0.38668425  0.36569018    -0.08540
C3168       C  0.67097176  0.41626686  0.35164603    -0.05910
C3169       C  0.68882966  0.43391182  0.32827044     0.00020
C3170       C  0.71853852  0.42059159  0.31634989    -0.08450
C3171       C  0.74258066  0.43955420  0.29489042     0.61930
H3172       H  0.74355733  0.37534150  0.30911273     0.12630
H3173       H  0.64723939  0.42643173  0.35873709     0.12640
C3174       C  0.65863457  0.36885795  0.38701042     0.62170
F3175       F  0.77248585  0.42309207  0.29193922    -0.23000
F3176       F  0.74913129  0.47002768  0.30885375    -0.20330
F3177       F  0.72980920  0.44357428  0.26365326    -0.20010
F3178       F  0.66908045  0.36948435  0.41934763    -0.20060
F3179       F  0.65459447  0.33759699  0.37438307    -0.20380
F3180       F  0.62739214  0.38308406  0.38667849    -0.23060
C3181       C  0.50072976  0.58753400  0.28937050    -0.05890
C3182       C  0.48801590  0.61963861  0.28600475     0.00030
C3183       C  0.50251342  0.64004216  0.26149814    -0.08540
C3184       C  0.53030738  0.62840587  0.24449431    -0.05910
C3185       C  0.54038024  0.59496995  0.24435125     0.00020
C3186       C  0.52342496  0.57374935  0.26681619    -0.08450
C3187       C  0.52504991  0.53662723  0.26754292     0.61930
H3188       H  0.49138921  0.57183192  0.30842720     0.12630
H3189       H  0.54212235  0.64557234  0.22799054     0.12640
C3190       C  0.48956230  0.67337431  0.25024306     0.62170
F3191       F  0.53537614  0.52596796  0.29835761    -0.23000
F3192       F  0.54594587  0.52434193  0.24463242    -0.20330
F3193       F  0.49400024  0.52379236  0.26092938    -0.20010
F3194       F  0.51521454  0.69588106  0.24871061    -0.20060
F3195       F  0.46587466  0.68627484  0.27051371    -0.20380
F3196       F  0.47610887  0.67002277  0.21893134    -0.23060
C3197       C  0.40704432  0.64171791  0.27337544    -0.05890
C3198       C  0.42662732  0.61878546  0.29066693     0.00030
C3199       C  0.41680995  0.58510362  0.29051412    -0.08540
C3200       C  0.39341447  0.57465672  0.26699396    -0.05910
C3201       C  0.37462677  0.59752361  0.24871867     0.00020
C3202       C  0.37908330  0.63164972  0.25544836    -0.08450
C3203       C  0.35495264  0.65808056  0.24434818     0.61930
H3204       H  0.41195018  0.66780256  0.27553459     0.12630
H3205       H  0.39017243  0.54844499  0.26291190     0.12640
C3206       C  0.42691584  0.56035065  0.31671498     0.62170
F3207       F  0.34902951  0.67964599  0.27022008    -0.23000
F3208       F  0.32480847  0.64478075  0.23501112    -0.20330
F3209       F  0.36825252  0.67561853  0.21834015    -0.20010
F3210       F  0.39874027  0.54832641  0.33145231    -0.20060
F3211       F  0.44606879  0.57403641  0.34158403    -0.20380
F3212       F  0.44358291  0.53421370  0.30246436    -0.23060
C3213       C  0.43679624  0.70637198  0.33574277    -0.05890
C3214       C  0.42902949  0.67335577  0.34041661     0.00030
C3215       C  0.39663546  0.66698715  0.35414376    -0.08540
C3216       C  0.37785788  0.69442448  0.36642963    -0.05910
C3217       C  0.39170846  0.72613300  0.37062248     0.00020
C3218       C  0.42309378  0.73143517  0.35485624    -0.08450
C3219       C  0.44637834  0.76030356  0.36166395     0.61930
H3220       H  0.45841894  0.71184322  0.32162460     0.12630
H3221       H  0.35237203  0.69106322  0.37348501     0.12640
C3222       C  0.38031783  0.63315104  0.35603803     0.62170
F3223       F  0.47811886  0.75315202  0.35321142    -0.23000
F3224       F  0.44791883  0.76623022  0.39485518    -0.20330
F3225       F  0.43843117  0.78808762  0.34369794    -0.20010
F3226       F  0.40087861  0.61098786  0.37189595    -0.20060
F3227       F  0.37172092  0.62153547  0.32551338    -0.20380
F3228       F  0.35050542  0.63437242  0.37241536    -0.23060
C3229       C  0.52382983  0.66200164  0.33414172    -0.05890
C3230       C  0.49233998  0.66242411  0.34978581     0.00030
C3231       C  0.49155041  0.68132962  0.37933674    -0.08540
C3232       C  0.51404903  0.70766250  0.38349864    -0.05910
C3233       C  0.54127611  0.71243843  0.36240766     0.00020
C3234       C  0.54781002  0.68713775  0.33906712    -0.08450
C3235       C  0.57863991  0.68605415  0.31778258     0.61930
H3236       H  0.53112983  0.64233637  0.31820904     0.12630
H3237       H  0.50989200  0.72488772  0.40349029     0.12640
C3238       C  0.46877273  0.67313333  0.40778527     0.62170
F3239       F  0.59962710  0.66171960  0.32949789    -0.23000
F3240       F  0.59538553  0.71568540  0.31721254    -0.20330
F3241       F  0.57014709  0.67862634  0.28550713    -0.20010
F3242       F  0.48755612  0.66841704  0.43595188    -0.20060
F3243       F  0.45117648  0.64442430  0.40215537    -0.20380
F3244       F  0.44698956  0.69870845  0.41361443    -0.23060
C3245       C  0.23257953  0.58846062  0.46571970    -0.05890
C3246       C  0.24466794  0.62055865  0.45939750     0.00030
C3247       C  0.23918277  0.63121951  0.42546678    -0.08540
C3248       C  0.21885941  0.61223279  0.40397424    -0.05910
C3249       C  0.19836934  0.58771455  0.41592879     0.00020
C3250       C  0.20663507  0.57411100  0.44721346    -0.08450
C3251       C  0.18831389  0.54554724  0.46251060     0.61930
H3252       H  0.24067090  0.57569520  0.48751313     0.12630
H3253       H  0.21403121  0.61998149  0.37882973     0.12640
C3254       C  0.24883783  0.66393189  0.41166082     0.62170
F3255       F  0.19405900  0.54342415  0.49621912    -0.23000
F3256       F  0.19935279  0.51664067  0.44829771    -0.20330
F3257       F  0.15462964  0.54928475  0.45827384    -0.20010
F3258       F  0.28265904  0.66600442  0.40938551    -0.20060
F3259       F  0.23490037  0.68688818  0.43180196    -0.20380
F3260       F  0.23659068  0.67011607  0.38021673    -0.23060
C3261       C  0.24682924  0.60480113  0.54104937    -0.05890
C3262       C  0.23490215  0.63129854  0.52220458     0.00030
C3263       C  0.20748193  0.64930400  0.53528814    -0.08540
C3264       C  0.19336779  0.63908049  0.56521357    -0.05910
C3265       C  0.20327786  0.61050384  0.58260630     0.00020
C3266       C  0.23489591  0.59725939  0.57287711    -0.08450
C3267       C  0.26351085  0.59358157  0.59718600     0.61930
H3268       H  0.26929049  0.59281392  0.53261741     0.12630
H3269       H  0.17261821  0.65334727  0.57414814     0.12640
C3270       C  0.19011738  0.67842539  0.51918649     0.62170
F3271       F  0.29364478  0.60190916  0.58368241    -0.23000
F3272       F  0.26711761  0.56163871  0.60757000    -0.20330
F3273       F  0.25946597  0.61527920  0.62278252    -0.20010
F3274       F  0.15688102  0.67106813  0.51609399    -0.20060
F3275       F  0.20301152  0.68606358  0.48868906    -0.20380
F3276       F  0.19195252  0.70605154  0.53919096    -0.23060
C3277       C  0.27055164  0.69577367  0.54487180    -0.05890
C3278       C  0.29253822  0.67269956  0.53147877     0.00030
C3279       C  0.32413411  0.67096795  0.54714833    -0.08540
C3280       C  0.33440581  0.69734520  0.56735615    -0.05910
C3281       C  0.31170228  0.71932350  0.58217404     0.00020
C3282       C  0.27777587  0.71425297  0.57338182    -0.08450
C3283       C  0.24822878  0.72770132  0.59198857     0.61930
H3284       H  0.24766071  0.70013832  0.53259429     0.12630
H3285       H  0.36054970  0.69936931  0.57131058     0.12640
C3286       C  0.34596878  0.64074655  0.54866686     0.62170
F3287       F  0.22571132  0.70250630  0.59691965    -0.23000
F3288       F  0.23300040  0.75248816  0.57401751    -0.20330
F3289       F  0.25664811  0.73940195  0.62267102    -0.20010
F3290       F  0.34951357  0.63135805  0.58134543    -0.20060
F3291       F  0.33271215  0.61444329  0.53161205    -0.20380
F3292       F  0.37723381  0.64802920  0.53736770    -0.23060
C3293       C  0.28492124  0.70924034  0.46497590    -0.05890
C3294       C  0.30034978  0.67897492  0.47115151     0.00030
C3295       C  0.33176928  0.67311510  0.45650040    -0.08540
C3296       C  0.34637179  0.69842371  0.43725464    -0.05910
C3297       C  0.32827914  0.72649234  0.42671954     0.00020
C3298       C  0.29504341  0.73017183  0.43954645    -0.08450
C3299       C  0.26839148  0.75407774  0.42629257     0.61930
H3300       H  0.26221793  0.71490032  0.47791333     0.12630
H3301       H  0.37203224  0.69580321  0.43028192     0.12640
C3302       C  0.35030051  0.64080156  0.45961801     0.62170
F3303       F  0.23661393  0.74477817  0.43440689    -0.23000
F3304       F  0.26959747  0.75517117  0.39222339    -0.20330
F3305       F  0.27134141  0.78509429  0.43984490    -0.20010
F3306       F  0.33076778  0.61597605  0.47212587    -0.20060
F3307       F  0.37833458  0.64514987  0.47848677    -0.20380
F3308       F  0.36075844  0.63018739  0.42938697    -0.23060
C3309       C  0.65742341  0.21459282  0.56150447    -0.05890
C3310       C  0.63612283  0.23562369  0.54387458     0.00030
C3311       C  0.60608329  0.24487234  0.55998281    -0.08540
C3312       C  0.59470104  0.22360591  0.58528472    -0.05910
C3313       C  0.61684141  0.20142588  0.60109655     0.00020
C3314       C  0.65014283  0.20601442  0.59410735    -0.08450
C3315       C  0.67091431  0.22205294  0.62096209     0.61930
H3316       H  0.68037888  0.20661362  0.55120402     0.12630
H3317       H  0.56890619  0.22415042  0.59094954     0.12640
C3318       C  0.58505491  0.27414494  0.54916584     0.62170
F3319       F  0.70404400  0.21511418  0.61652696    -0.23000
F3320       F  0.66607565  0.25582687  0.62004700    -0.20330
F3321       F  0.66195911  0.21135057  0.65206361    -0.20010
F3322       F  0.57532794  0.27157105  0.51657673    -0.20060
F3323       F  0.60301738  0.30279178  0.55310803    -0.20380
F3324       F  0.55679910  0.27701307  0.56816336    -0.23060
C3325       C  0.59664035  0.21076072  0.49042590    -0.05890
C3326       C  0.62703254  0.22546526  0.48124654     0.00030
C3327       C  0.63768279  0.21688842  0.44855148    -0.08540
C3328       C  0.61458286  0.20320374  0.42580399    -0.05910
C3329       C  0.58499478  0.18834480  0.43621440     0.00020
C3330       C  0.57763772  0.18994548  0.47044005    -0.08450
C3331       C  0.55211715  0.16820219  0.48783175     0.61930
H3332       H  0.58782771  0.21309246  0.51477596     0.12630
H3333       H  0.62199779  0.19967314  0.40033886     0.12640
C3334       C  0.67314244  0.21443943  0.43746623     0.62170
F3335       F  0.54878010  0.17556691  0.52108909    -0.23000
F3336       F  0.56217896  0.13578059  0.48627422    -0.20330
F3337       F  0.52116295  0.17176945  0.47414355    -0.20010
F3338       F  0.69458773  0.22767855  0.45980949    -0.20060
F3339       F  0.67717221  0.22989514  0.40735810    -0.20380
F3340       F  0.68134618  0.18151094  0.43368489    -0.23060
C3341       C  0.68794749  0.30073026  0.41706037    -0.05890
C3342       C  0.71383286  0.32349508  0.42253965     0.00030
C3343       C  0.71849573  0.33440844  0.45523733    -0.08540
C3344       C  0.70627731  0.31485127  0.48072860    -0.05910
C3345       C  0.67951749  0.29226949  0.47594716     0.00020
C3346       C  0.66627442  0.29201669  0.44327665    -0.08450
C3347       C  0.62939837  0.29349636  0.43606503     0.61930
H3348       H  0.68296476  0.29203989  0.39226993     0.12630
H3349       H  0.71719493  0.31967275  0.50457877     0.12640
C3350       C  0.73315381  0.36779939  0.46404384     0.62170
F3351       F  0.62077670  0.32518761  0.42726512    -0.23000
F3352       F  0.61039621  0.28615669  0.46311587    -0.20330
F3353       F  0.62137706  0.27288275  0.41003648    -0.20010
F3354       F  0.73770601  0.38734060  0.43649193    -0.20060
F3355       F  0.76281291  0.36410849  0.48071759    -0.20380
F3356       F  0.71143615  0.38443553  0.48440002    -0.23060
C3357       C  0.67337212  0.31672696  0.54912184    -0.05890
C3358       C  0.68214965  0.28488465  0.53840508     0.00030
C3359       C  0.70853633  0.26874560  0.55512358    -0.08540
C3360       C  0.71900223  0.28180383  0.58523115    -0.05910
C3361       C  0.71638783  0.31582002  0.59186238     0.00020
C3362       C  0.69346359  0.33423347  0.57189497    -0.08450
C3363       C  0.69274961  0.37156711  0.56951800     0.61930
H3364       H  0.65464829  0.32971602  0.53498199     0.12630
H3365       H  0.73612238  0.26710849  0.59974480     0.12640
C3366       C  0.73134850  0.24285192  0.54010215     0.62170
F3367       F  0.67708113  0.38215484  0.54094279    -0.23000
F3368       F  0.72463663  0.38372648  0.56854052    -0.20330
F3369       F  0.67525650  0.38474670  0.59553527    -0.20010
F3370       F  0.71800525  0.22748526  0.51311141    -0.20060
F3371       F  0.73931075  0.21872732  0.56293097    -0.20380
F3372       F  0.76034069  0.25787059  0.53040025    -0.23060
C3373       C  0.20852252  0.92476765  0.18384715    -0.05890
C3374       C  0.18396015  0.93456627  0.16161075     0.00030
C3375       C  0.18379810  0.91834151  0.13011294    -0.08540
C3376       C  0.20730734  0.89314137  0.12329007    -0.05910
C3377       C  0.23139037  0.88244118  0.14617466     0.00020
C3378       C  0.23237915  0.90018272  0.17735114    -0.08450
C3379       C  0.25822487  0.89548646  0.20470277     0.61930
H3380       H  0.21002378  0.93857810  0.20651796     0.12630
H3381       H  0.20727128  0.88260282  0.09880744     0.12640
C3382       C  0.16044026  0.92590750  0.10193092     0.62170
F3383       F  0.25161220  0.91382294  0.23281664    -0.23000
F3384       F  0.28902894  0.90589203  0.19465741    -0.20330
F3385       F  0.25878152  0.86301716  0.21421547    -0.20010
F3386       F  0.13641624  0.94785877  0.11040510    -0.20060
F3387       F  0.14493863  0.89718042  0.09165052    -0.20380
F3388       F  0.17814356  0.93876711  0.07580471    -0.23060
C3389       C  0.14648206  0.01569773  0.23170322    -0.05890
C3390       C  0.12581364  0.98966634  0.22044756     0.00030
C3391       C  0.09254732  0.99022948  0.23373241    -0.08540
C3392       C  0.08355941  0.01438712  0.25752672    -0.05910
C3393       C  0.10368279  0.04095235  0.26669488     0.00020
C3394       C  0.13565289  0.04200321  0.25245133    -0.08450
C3395       C  0.15917654  0.07033607  0.25901465     0.61930
H3396       H  0.17211616  0.01525877  0.22578570     0.12630
H3397       H  0.05933615  0.01363041  0.26825107     0.12640
C3398       C  0.06484981  0.96717647  0.22280712     0.62170
F3399       F  0.18049009  0.07448867  0.23273024    -0.23000
F3400       F  0.17770214  0.06380700  0.28705033    -0.20330
F3401       F  0.14205663  0.09967048  0.26283581    -0.20010
F3402       F  0.07085137  0.93606845  0.23346091    -0.20060
F3403       F  0.06136877  0.96839021  0.18896003    -0.20380
F3404       F  0.03441984  0.97454875  0.23637544    -0.23060
C3405       C  0.20988920  0.00627567  0.17934466    -0.05890
C3406       C  0.18027863  0.99769421  0.16284884     0.00030
C3407       C  0.17272843  0.01661214  0.13394805    -0.08540
C3408       C  0.19771600  0.03715051  0.11948841    -0.05910
C3409       C  0.22841516  0.04383995  0.13544825     0.00020
C3410       C  0.23170511  0.03110249  0.16820654    -0.08450
C3411       C  0.25784032  0.04236070  0.19279431     0.61930
H3412       H  0.21632030  0.99352367  0.20193886     0.12630
H3413       H  0.19322234  0.04733609  0.09520589     0.12640
C3414       C  0.13858201  0.01706617  0.11826181     0.62170
F3415       F  0.24249972  0.05296819  0.22132729    -0.23000
F3416       F  0.27650067  0.06821255  0.18121104    -0.20330
F3417       F  0.27850381  0.01637179  0.20092047    -0.20010
F3418       F  0.12690734  0.04899063  0.11674359    -0.20060
F3419       F  0.11583137  0.99929992  0.13636349    -0.20380
F3420       F  0.14016555  0.00496232  0.08635126    -0.23060
C3421       C  0.15565890  0.91691637  0.24073306    -0.05890
C3422       C  0.13584864  0.92606084  0.21357173     0.00030
C3423       C  0.11254133  0.90176514  0.20234107    -0.08540
C3424       C  0.10318169  0.87600538  0.22439666    -0.05910
C3425       C  0.12084680  0.86912655  0.25379364     0.00020
C3426       C  0.15145004  0.88643106  0.25707823    -0.08450
C3427       C  0.18066966  0.87294096  0.27637205     0.61930
H3428       H  0.17549783  0.93307223  0.24869532     0.12630
H3429       H  0.08017442  0.86406568  0.21938568     0.12640
C3430       C  0.09324745  0.90399318  0.17025878     0.62170
F3431       F  0.20869406  0.87511914  0.25737888    -0.23000
F3432       F  0.17670359  0.83989913  0.28377602    -0.20330
F3433       F  0.18558397  0.89104624  0.30497322    -0.20010
F3434       F  0.10252852  0.87818447  0.14998125    -0.20060
F3435       F  0.09874337  0.93307131  0.15396734    -0.20380
F3436       F  0.05958539  0.90161725  0.17607874    -0.23060
C3437       C  0.99112931  0.22208652  0.16379050    -0.05890
C3438       C  0.99429164  0.18826207  0.16973412     0.00030
C3439       C  0.02519445  0.17381896  0.15920296    -0.08540
C3440       C  0.05201046  0.19489059  0.14918451    -0.05910
C3441       C  0.04623443  0.22837010  0.14126913     0.00020
C3442       C  0.01350471  0.23917449  0.14410384    -0.08450
C3443       C  0.99926029  0.26460544  0.12150650     0.61930
H3444       H  0.96867306  0.23442812  0.17064475     0.12630
H3445       H  0.07629120  0.18452307  0.14460966     0.12640
C3446       C  0.03016474  0.13743048  0.15372681     0.62170
F3447       F  0.97057170  0.25209485  0.10809198    -0.23000
F3448       F  0.01884660  0.27143211  0.09484415    -0.20330
F3449       F  0.99398459  0.29290938  0.13961419    -0.20010
F3450       F  0.04162361  0.13218838  0.12199177    -0.20060
F3451       F  0.00099365  0.12005813  0.15680650    -0.20380
F3452       F  0.05364418  0.12585190  0.17578231    -0.23060
C3453       C  0.90382239  0.12726324  0.21577719    -0.05890
C3454       C  0.93365863  0.13787863  0.23130521     0.00030
C3455       C  0.93612649  0.13056948  0.26555936    -0.08540
C3456       C  0.91534519  0.10677766  0.27939167    -0.05910
C3457       C  0.88377012  0.09933516  0.26655568     0.00020
C3458       C  0.87722882  0.11250348  0.23419542    -0.08450
C3459       C  0.84289389  0.11541913  0.21949657     0.61930
H3460       H  0.89999912  0.13237978  0.18985109     0.12630
H3461       H  0.92168003  0.09851361  0.30377328     0.12640
C3462       C  0.95583305  0.15136512  0.28990594     0.62170
F3463       F  0.83777156  0.09038156  0.19689703    -0.23000
F3464       F  0.83956132  0.14538894  0.20338822    -0.20330
F3465       F  0.81884088  0.11449477  0.24346202    -0.20010
F3466       F  0.96061412  0.18272797  0.27778667    -0.20060
F3467       F  0.98579810  0.13666107  0.29700064    -0.20380
F3468       F  0.93868033  0.15483009  0.31926892    -0.23060
C3469       C  0.99989399  0.10364209  0.22500032    -0.05890
C3470       C  0.99684406  0.13806044  0.22628404     0.00030
C3471       C  0.02309901  0.15554725  0.24241687    -0.08540
C3472       C  0.04902847  0.13750843  0.25825042    -0.05910
C3473       C  0.05085699  0.10263781  0.25843653     0.00020
C3474       C  0.02851961  0.08686244  0.23588177    -0.08450
C3475       C  0.03903488  0.05984662  0.21254993     0.61930
H3476       H  0.98124650  0.08989861  0.21133035     0.12630
H3477       H  0.06699281  0.15109067  0.27279005     0.12640
C3478       C  0.02485717  0.19255471  0.24626169     0.62170
F3479       F  0.02714179  0.06486590  0.18080967    -0.23000
F3480       F  0.02551713  0.03092819  0.22319840    -0.20330
F3481       F  0.07298873  0.05842981  0.20972832    -0.20010
F3482       F  0.99745455  0.20900353  0.23428587    -0.20060
F3483       F  0.05243274  0.20313617  0.22954325    -0.20380
F3484       F  0.02840928  0.20068002  0.27932199    -0.23060
C3485       C  0.90894981  0.20398875  0.19114001    -0.05890
C3486       C  0.92984395  0.18597894  0.17013844     0.00030
C3487       C  0.92179966  0.18705323  0.13563213    -0.08540
C3488       C  0.89669751  0.20911457  0.12353076    -0.05910
C3489       C  0.87677959  0.22857698  0.14459995     0.00020
C3490       C  0.88179413  0.22323671  0.17945184    -0.08450
C3491       C  0.85936596  0.23768650  0.20566828     0.61930
H3492       H  0.91445424  0.20368896  0.21735118     0.12630
H3493       H  0.89305821  0.21184198  0.09717016     0.12640
C3494       C  0.93910564  0.16430787  0.11146806     0.62170
F3495       F  0.85797678  0.21702620  0.23285042    -0.23000
F3496       F  0.82737119  0.24105372  0.19409266    -0.20330
F3497       F  0.87151863  0.26791317  0.21595702    -0.20010
F3498       F  0.92297358  0.16354564  0.08121866    -0.20060
F3499       F  0.93953788  0.13251619  0.12386893    -0.20380
F3500       F  0.97112971  0.17466901  0.10621674    -0.23060
C3501       C  0.09432624  0.23042908  0.95215663    -0.05890
C3502       C  0.08990842  0.21792929  0.92004885     0.00030
C3503       C  0.09955356  0.18374516  0.91582027    -0.08540
C3504       C  0.11420328  0.16668278  0.94373263    -0.05910
C3505       C  0.12805220  0.18414694  0.97105283     0.00020
C3506       C  0.11972391  0.21828961  0.97232213    -0.08450
C3507       C  0.14133468  0.24396365  0.98901570     0.61930
H3508       H  0.08459138  0.25458124  0.95817957     0.12630
H3509       H  0.11789243  0.14028306  0.94285074     0.12640
C3510       C  0.09784346  0.16502917  0.88302222     0.62170
F3511       F  0.13967765  0.27400958  0.97293419    -0.23000
F3512       F  0.17402334  0.23418104  0.98838293    -0.20330
F3513       F  0.13092506  0.24925849  0.02070870    -0.20010
F3514       F  0.12045874  0.17738880  0.86094396    -0.20060
F3515       F  0.06762313  0.16650269  0.86815889    -0.20380
F3516       F  0.10389450  0.13176799  0.88771535    -0.23060
C3517       C  0.24469845  0.10602061  0.04853519    -0.05890
C3518       C  0.23289897  0.10249953  0.08094740     0.00030
C3519       C  0.20008097  0.11434892  0.08699044    -0.08540
C3520       C  0.17980690  0.12454782  0.05975677    -0.05910
C3521       C  0.19297087  0.13113438  0.02794426     0.00020
C3522       C  0.22768939  0.12460026  0.02433056    -0.08450
C3523       C  0.24935782  0.13853721  0.99708175     0.61930
H3524       H  0.26991860  0.09836228  0.04344283     0.12630
H3525       H  0.15379765  0.12875448  0.06419897     0.12640
C3526       C  0.18605352  0.11952700  0.12133143     0.62170
F3527       F  0.23388327  0.16256682  0.97848958    -0.23000
F3528       F  0.25963018  0.11323009  0.97707469    -0.20330
F3529       F  0.27745082  0.15280729  0.01046135    -0.20010
F3530       F  0.20798152  0.11098159  0.14617610    -0.20060
F3531       F  0.15755788  0.10139586  0.12500588    -0.20380
F3532       F  0.17795862  0.15245680  0.12537880    -0.23060
C3533       C  0.13721163  0.21202729  0.08566888    -0.05890
C3534       C  0.10304602  0.21813900  0.08615889     0.00030
C3535       C  0.08368452  0.20170099  0.06126798    -0.08540
C3536       C  0.09991106  0.18041179  0.03843961    -0.05910
C3537       C  0.13457479  0.18069239  0.03391688     0.00020
C3538       C  0.15332529  0.19843286  0.05806665    -0.08450
C3539       C  0.18872295  0.20964865  0.05493704     0.61930
H3540       H  0.15247956  0.22428716  0.10389078     0.12630
H3541       H  0.08540029  0.16681311  0.02045425     0.12640
C3542       C  0.04715941  0.20841463  0.05536401     0.62170
F3543       F  0.18969357  0.24370295  0.05234373    -0.23000
F3544       F  0.20497319  0.19659867  0.02820818    -0.20330
F3545       F  0.20490246  0.20137564  0.08365204    -0.20010
F3546       F  0.04259024  0.24113557  0.04751004    -0.20060
F3547       F  0.02900360  0.20036534  0.08271596    -0.20380
F3548       F  0.03447792  0.19007497  0.02931850    -0.23060
C3549       C  0.18424607  0.14086589  0.93528002    -0.05890
C3550       C  0.17947882  0.12416971  0.96563665     0.00030
C3551       C  0.18925410  0.09024495  0.96606584    -0.08540
C3552       C  0.21246789  0.07885716  0.94263023    -0.05910
C3553       C  0.21978490  0.09704414  0.91405310     0.00020
C3554       C  0.20027522  0.12547390  0.90823445    -0.08450
C3555       C  0.19171283  0.13673753  0.87364456     0.61930
H3556       H  0.17670444  0.16626286  0.93245445     0.12630
H3557       H  0.22523080  0.05581029  0.94721880     0.12640
C3558       C  0.17621361  0.06536819  0.99068068     0.62170
F3559       F  0.15989075  0.12726509  0.86662390    -0.23000
F3560       F  0.21089604  0.12191458  0.85016251    -0.20330
F3561       F  0.19414721  0.17064336  0.87063852    -0.20010
F3562       F  0.16451718  0.03804606  0.97371602    -0.20060
F3563       F  0.15025638  0.07785434  0.00901886    -0.20380
F3564       F  0.20134983  0.05533216  0.01169464    -0.23060
C3565       C  0.54750204  0.20001771  0.33167936    -0.05890
C3566       C  0.54695310  0.20292111  0.36636462     0.00030
C3567       C  0.52976737  0.23126100  0.37897105    -0.08540
C3568       C  0.51043560  0.25027266  0.35673094    -0.05910
C3569       C  0.50173474  0.23811155  0.32536705     0.00020
C3570       C  0.52048605  0.21102798  0.31292556    -0.08450
C3571       C  0.51256831  0.19029942  0.28256389     0.61930
H3572       H  0.56359812  0.18177828  0.32053445     0.12630
H3573       H  0.49869083  0.27281626  0.36495043     0.12640
C3574       C  0.52927584  0.24123764  0.41491115     0.62170
F3575       F  0.53949667  0.18942072  0.26167120    -0.23000
F3576       F  0.48586444  0.20174519  0.26525898    -0.20330
F3577       F  0.50572610  0.15829118  0.29187383    -0.20010
F3578       F  0.56059163  0.24999847  0.42515637    -0.20060
F3579       F  0.51737466  0.21561091  0.43339433    -0.20380
F3580       F  0.50886793  0.26812022  0.42067322    -0.23060
C3581       C  0.38956432  0.31520837  0.26110650    -0.05890
C3582       C  0.39846524  0.33439396  0.23414211     0.00030
C3583       C  0.43201759  0.34303234  0.23021097    -0.08540
C3584       C  0.45572643  0.32507043  0.24810207    -0.05910
C3585       C  0.44776389  0.30352045  0.27437701     0.00020
C3586       C  0.41385264  0.30507003  0.28396567    -0.08450
C3587       C  0.40301945  0.30762580  0.31889892     0.61930
H3588       H  0.36350572  0.31231673  0.26675202     0.12630
H3589       H  0.48070254  0.33055042  0.24282983     0.12640
C3590       C  0.44253888  0.37520670  0.21347465     0.62170
F3591       F  0.38708739  0.33748134  0.32409093    -0.23000
F3592       F  0.42983401  0.30688982  0.34010965    -0.20330
F3593       F  0.38056673  0.28266556  0.32460022    -0.20010
F3594       F  0.46588755  0.39133900  0.23271002    -0.20060
F3595       F  0.41639878  0.39635028  0.20938384    -0.20380
F3596       F  0.45545872  0.37024183  0.18266001    -0.23060
C3597       C  0.43122547  0.24124569  0.35427388    -0.05890
C3598       C  0.43914323  0.23930417  0.32028480     0.00030
C3599       C  0.41712136  0.22104974  0.30004580    -0.08540
C3600       C  0.39194633  0.20265601  0.31507513    -0.05910
C3601       C  0.38284237  0.20510199  0.34871402     0.00020
C3602       C  0.40062856  0.23000414  0.36692017    -0.08450
C3603       C  0.38452408  0.25447370  0.39060140     0.61930
H3604       H  0.44621405  0.25660423  0.37021293     0.12630
H3605       H  0.38011418  0.18527676  0.29926619     0.12640
C3606       C  0.41811825  0.21867604  0.26277452     0.62170
F3607       F  0.39290792  0.28670905  0.38403036    -0.23000
F3608       F  0.39567452  0.24977859  0.42204107    -0.20330
F3609       F  0.35068255  0.25333505  0.38825621    -0.20010
F3610       F  0.42467646  0.18644990  0.25342993    -0.20060
F3611       F  0.44118723  0.23919508  0.24868733    -0.20380
F3612       F  0.38724068  0.22715282  0.25055557    -0.23060
C3613       C  0.52964048  0.27037275  0.26088242    -0.05890
C3614       C  0.51117604  0.29196026  0.28092248     0.00030
C3615       C  0.52360421  0.32434182  0.28487207    -0.08540
C3616       C  0.54613320  0.33614075  0.26120899    -0.05910
C3617       C  0.56184910  0.31509399  0.23806370     0.00020
C3618       C  0.55694156  0.28081282  0.24215271    -0.08450
C3619       C  0.57746913  0.25459044  0.22502840     0.61930
H3620       H  0.52060601  0.24619552  0.25619075     0.12630
H3621       H  0.54828793  0.36230296  0.25955110     0.12640
C3622       C  0.51041473  0.34839034  0.31027671     0.62170
F3623       F  0.58784886  0.23168320  0.24813779    -0.23000
F3624       F  0.60555272  0.26723501  0.21047262    -0.20330
F3625       F  0.55849086  0.23884539  0.20123502    -0.20010
F3626       F  0.53676826  0.36289705  0.32671280    -0.20060
F3627       F  0.49089445  0.33298893  0.33350266    -0.20380
F3628       F  0.49208216  0.37281086  0.29488397    -0.23060
C3629       C  0.24764928  0.40852721  0.35070388    -0.05890
C3630       C  0.23489229  0.42355184  0.32176208     0.00030
C3631       C  0.20535903  0.41012588  0.30846966    -0.08540
C3632       C  0.19625511  0.37870797  0.31920640    -0.05910
C3633       C  0.20066684  0.37024434  0.35291038     0.00020
C3634       C  0.22647084  0.38798492  0.36972411    -0.08450
C3635       C  0.22802680  0.39341185  0.40664999     0.61930
H3636       H  0.26873804  0.42014220  0.36265795     0.12630
H3637       H  0.17784164  0.36621464  0.30446359     0.12640
C3638       C  0.17878190  0.42930708  0.28956345     0.62170
F3639       F  0.23369666  0.42630557  0.41398460    -0.23000
F3640       F  0.25418251  0.37594689  0.41950391    -0.20330
F3641       F  0.19883473  0.38483202  0.42185391    -0.20010
F3642       F  0.17023563  0.41295665  0.26076784    -0.20060
F3643       F  0.18776008  0.46113572  0.28179757    -0.20380
F3644       F  0.15079135  0.43139077  0.30894171    -0.23060
C3645       C  0.32534980  0.53784284  0.27283800    -0.05890
C3646       C  0.32852076  0.53335394  0.23809420     0.00030
C3647       C  0.31698461  0.50293332  0.22599009    -0.08540
C3648       C  0.29282013  0.48605018  0.24294045    -0.05910
C3649       C  0.29129434  0.48776387  0.27730479     0.00020
C3650       C  0.31070122  0.51273224  0.29311310    -0.08450
C3651       C  0.31641035  0.51420255  0.33005135     0.61930
H3652       H  0.33393175  0.56020881  0.28454458     0.12630
H3653       H  0.28071120  0.46620380  0.22987864     0.12640
C3654       C  0.33532820  0.48277878  0.20100779     0.62170
F3655       F  0.34969024  0.50972079  0.33633387    -0.23000
F3656       F  0.29960003  0.49005576  0.34706807    -0.20330
F3657       F  0.30676264  0.54468522  0.34207380    -0.20010
F3658       F  0.33893814  0.45143548  0.21352079    -0.20060
F3659       F  0.36682634  0.49471455  0.19544525    -0.20380
F3660       F  0.31711836  0.48126589  0.17215116    -0.23060
C3661       C  0.21153738  0.47779787  0.35858372    -0.05890
C3662       C  0.23002259  0.48682350  0.33037676     0.00030
C3663       C  0.22758752  0.52114201  0.32123552    -0.08540
C3664       C  0.21229451  0.54354378  0.34364524    -0.05910
C3665       C  0.19001692  0.53231080  0.36789277     0.00020
C3666       C  0.18974253  0.49837924  0.37523359    -0.08450
C3667       C  0.16219019  0.48099976  0.39383945     0.61930
H3668       H  0.21005109  0.45282822  0.36611877     0.12630
H3669       H  0.21209699  0.56960507  0.33769890     0.12640
C3670       C  0.23183783  0.53455774  0.28633635     0.62170
F3671       F  0.13790544  0.47302320  0.37110623    -0.23000
F3672       F  0.14874939  0.49973113  0.41853612    -0.20330
F3673       F  0.17327328  0.45237156  0.40879588    -0.20010
F3674       F  0.23149485  0.50980774  0.26298567    -0.20060
F3675       F  0.25998650  0.55344341  0.28451870    -0.20380
F3676       F  0.20629392  0.55543134  0.27765608    -0.23060
C3677       C  0.29664895  0.37763752  0.24584415    -0.05890
C3678       C  0.33158053  0.37863313  0.24587995     0.00030
C3679       C  0.34610181  0.40135648  0.26987485    -0.08540
C3680       C  0.32456864  0.42150376  0.28903580    -0.05910
C3681       C  0.29120996  0.42593929  0.28087224     0.00020
C3682       C  0.27752956  0.40415710  0.25698557    -0.08450
C3683       C  0.24579862  0.40953938  0.23760916     0.61930
H3684       H  0.28397321  0.36051967  0.22997205     0.12630
H3685       H  0.33443746  0.43852883  0.30721642     0.12640
C3686       C  0.38236073  0.41089952  0.27343686     0.62170
F3687       F  0.25286770  0.40987638  0.20417015    -0.23000
F3688       F  0.23074524  0.43905476  0.24467741    -0.20330
F3689       F  0.22433850  0.38369731  0.24352650    -0.20010
F3690       F  0.39091877  0.43157069  0.24794071    -0.20060
F3691       F  0.40252813  0.38395620  0.27502815    -0.20380
F3692       F  0.38867380  0.42819633  0.30235441    -0.23060
C3693       C  0.23548568  0.27821882  0.54958234    -0.05890
C3694       C  0.24731691  0.29604403  0.52185645     0.00030
C3695       C  0.23684534  0.32928146  0.51910066    -0.08540
C3696       C  0.21014531  0.33985586  0.53814742    -0.05910
C3697       C  0.20328074  0.32546264  0.56873998     0.00020
C3698       C  0.21791730  0.29414653  0.57530551    -0.08450
C3699       C  0.21688263  0.27692130  0.60847970     0.61930
H3700       H  0.24055762  0.25223892  0.55230229     0.12630
H3701       H  0.19660050  0.36134185  0.53005618     0.12640
C3702       C  0.25114111  0.35398418  0.49526662     0.62170
F3703       F  0.24893889  0.27087187  0.61905636    -0.23000
F3704       F  0.20070430  0.24697990  0.60535064    -0.20330
F3705       F  0.20152379  0.29566587  0.63250079    -0.20010
F3706       F  0.22706326  0.36141372  0.47244998    -0.20060
F3707       F  0.27935209  0.34278993  0.47985512    -0.20380
F3708       F  0.25979230  0.38266270  0.51152055    -0.23060
C3709       C  0.33412002  0.22864499  0.46672058    -0.05890
C3710       C  0.29989104  0.23582287  0.46532606     0.00030
C3711       C  0.28120455  0.22040877  0.43995116    -0.08540
C3712       C  0.29814240  0.20744491  0.41276392    -0.05910
C3713       C  0.33189005  0.19873540  0.41432901     0.00020
C3714       C  0.34957329  0.20726415  0.44390471    -0.08450
C3715       C  0.38355800  0.19352184  0.45363079     0.61930
H3716       H  0.34823344  0.23746118  0.48779218     0.12630
H3717       H  0.28333428  0.19981214  0.39213733     0.12640
C3718       C  0.24479309  0.21117862  0.44222594     0.62170
F3719       F  0.40189317  0.21648922  0.47133600    -0.23000
F3720       F  0.40178055  0.18415322  0.42641239    -0.20330
F3721       F  0.37986557  0.16689293  0.47415604    -0.20010
F3722       F  0.22692971  0.22724550  0.41784552    -0.20060
F3723       F  0.23115248  0.21781427  0.47262114    -0.20380
F3724       F  0.24158051  0.17752665  0.43745319    -0.23060
C3725       C  0.32702758  0.22765007  0.57632349    -0.05890
C3726       C  0.32987547  0.19366130  0.56826970     0.00030
C3727       C  0.31137692  0.18268553  0.53988653    -0.08540
C3728       C  0.28818522  0.20377420  0.52622209    -0.05910
C3729       C  0.29396285  0.23761563  0.52687235     0.00020
C3730       C  0.31342805  0.25054501  0.55339139    -0.08450
C3731       C  0.31962610  0.28728916  0.55842048     0.61930
H3732       H  0.33706919  0.23701188  0.59912833     0.12630
H3733       H  0.27147477  0.19374557  0.50784678     0.12640
C3734       C  0.31832195  0.15202610  0.51911564     0.62170
F3735       F  0.34621635  0.29334865  0.57915312    -0.23000
F3736       F  0.29291054  0.30158913  0.57344761    -0.20330
F3737       F  0.32561216  0.30266646  0.52859612    -0.20010
F3738       F  0.29769128  0.12635188  0.52770476    -0.20060
F3739       F  0.35083458  0.14289210  0.52206692    -0.20380
F3740       F  0.31294699  0.15813040  0.48587801    -0.23060
C3741       C  0.22795527  0.31161305  0.40732032    -0.05890
C3742       C  0.19457204  0.31531431  0.41716677     0.00030
C3743       C  0.18609265  0.30184999  0.44901945    -0.08540
C3744       C  0.20884323  0.28203902  0.46521755    -0.05910
C3745       C  0.24270583  0.28559714  0.46026038     0.00020
C3746       C  0.25288570  0.29996483  0.42962785    -0.08450
C3747       C  0.28848625  0.30215576  0.41820944     0.61930
H3748       H  0.23510910  0.31966443  0.38293294     0.12630
H3749       H  0.20071951  0.26842585  0.48673406     0.12640
C3750       C  0.15694105  0.31219900  0.47067622     0.62170
F3751       F  0.29320485  0.27882386  0.39385186    -0.23000
F3752       F  0.31109592  0.29738739  0.44337778    -0.20330
F3753       F  0.29496938  0.33271491  0.40471251    -0.20010
F3754       F  0.12880016  0.29464218  0.46294340    -0.20060
F3755       F  0.15230853  0.34579700  0.46832463    -0.20380
F3756       F  0.16246381  0.30592129  0.50379556    -0.23060
loop_ 
_geom_bond_atom_site_label_1 
_geom_bond_atom_site_label_2 
_geom_bond_distance 
_geom_bond_site_symmetry_2 
_ccdc_geom_bond_type 
C1            C2   1.376       .  D
C1         C3694   1.527       .  S
C1         C3745   1.526       .  S
C2         C3710   1.516       .  S
C2         C3729   1.505       .  S
C3            C4   1.386       .  D
C3         C3649   1.507       .  S
C3         C3681   1.524       .  S
C4         C3630   1.515       .  S
C4         C3662   1.558       .  S
C5            C6   1.398       .  D
C5         C3585   1.560       .  S
C5         C3614   1.528       .  S
C6         C3569   1.513       .  S
C6         C3598   1.519       .  S
C7            C8   1.419   1_556  D
C7         C3521   1.562   1_556  S
C7         C3550   1.545       .  S
C8         C3505   1.562   1_554  S
C8         C3537   1.536       .  S
C9           C10   1.412       .  D
C9         C3438   1.553       .  S
C9         C3486   1.557       .  S
C10        C3454   1.555       .  S
C10        C3470   1.533       .  S
C11          C12   1.426       .  D
C11        C3390   1.572       .  S
C11        C3422   1.541       .  S
C12        C3374   1.541       .  S
C12        C3406   1.550       .  S
C13          C14   1.407       .  D
C13        C3345   1.549       .  S
C13        C3358   1.515       .  S
C14        C3310   1.530       .  S
C14        C3326   1.563       .  S
C15          C16   1.413       .  D
C15        C3278   1.534       .  S
C15        C3294   1.498       .  S
C16        C3246   1.579       .  S
C16        C3262   1.534       .  S
C17          C18   1.388       .  D
C17        C3182   1.509       .  S
C17        C3198   1.487       .  S
C18        C3214   1.553       .  S
C18        C3230   1.569       .  S
C19          C20   1.388       .  D
C19        C3118   1.551       .  S
C19        C3134   1.494       .  S
C20        C3150   1.524       .  S
C20        C3169   1.483       .  S
C21          C22   1.413       .  D
C21        C3086   1.503       .  S
C21        C3102   1.556       .  S
C22        C3057   1.508       .  S
C22        C3070   1.601       .  S
C23          C24   1.401       .  D
C23        C3022   1.529       .  S
C23        C3038   1.501       .  S
C24        C2990   1.568       .  S
C24        C3006   1.508       .  S
C25          C26   1.413       .  D
C25        C2958   1.545       .  S
C25        C2974   1.549   1_554  S
C26        C2926   1.522       .  S
C26        C2942   1.546   1_554  S
C27          C28   1.401       .  D
C27        C2894   1.523       .  S
C27        C2910   1.541   1_554  S
C28        C2865   1.550       .  S
C28        C2878   1.529   1_554  S
C29          C30   1.412       .  D
C29        C2830   1.520       .  S
C29        C2846   1.542       .  S
C30        C2798   1.552       .  S
C30        C2814   1.544       .  S
C31          C32   1.401       .  D
C31        C2769   1.531       .  S
C31        C2782   1.532       .  S
C32        C2734   1.539       .  S
C32        C2753   1.535       .  S
C33          C34   1.399       .  D
C33        C2670   1.534       .  S
C33        C2689   1.530   1_655  S
C34        C2702   1.542       .  S
C34        C2721   1.542       .  S
C35          C36   1.406       .  D
C35        C2606   1.522       .  S
C35        C2625   1.544       .  S
C36        C2641   1.529       .  S
C36        C2654   1.539       .  S
N37          N38   1.307       .  A
N37          N43   1.311       .  A
N37         Mn66   2.128   1_556  S
N38          C45   1.339       .  A
N39          N41   1.311       .  A
N39          N40   1.323       .  A
N39         Mn55   2.191   1_554  S
N40          C46   1.354       .  A
N41          N42   1.315       .  A
N41         Mn66   2.186       .  S
N42          C46   1.350       .  A
N43          N44   1.321       .  A
N43         Mn55   2.209       .  S
N44          C45   1.359       .  A
C45        C2526   1.453       .  S
C46        C2494   1.480       .  S
N47          N53   1.318       .  A
N47          N48   1.328       .  A
N47         Mn77   2.248   1_554  S
N48          C56   1.363       .  A
N49          N50   1.315       .  A
N49          N51   1.322       .  A
N49         Mn55   2.187       .  S
N50          C57   1.343       .  A
N51          N52   1.332       .  A
N51         Mn77   2.266       .  S
N52          C57   1.364       .  A
N53          N54   1.313       .  A
N53         Mn55   2.173   1_554  S
N54          C56   1.342       .  A
Mn55        Cl79   2.506       .  S
C56        C2561   1.479       .  S
C57        C2590   1.498       .  S
N58          N59   1.306       .  A
N58          N64   1.308       .  A
N58         Mn66   2.141       .  S
N59          C67   1.341       .  A
N60          N62   1.311       .  A
N60          N61   1.320       .  A
N60         Mn78   2.193       .  S
N61          C68   1.355       .  A
N62          N63   1.319       .  A
N62         Mn66   2.197   1_556  S
N63          C68   1.353       .  A
N64          N65   1.325       .  A
N64         Mn78   2.201   1_554  S
N65          C67   1.360       .  A
Mn66        Cl79   2.568   1_554  S
C67        C2513   1.484       .  S
C68        C2478   1.494       .  S
N69          N70   1.332       .  A
N69          N75   1.321       .  A
N69         Mn77   2.265       .  S
N70          C80   1.365       .  A
N71          N72   1.312       .  A
N71          N73   1.319       .  A
N71         Mn78   2.157   1_554  S
N72          C81   1.338       .  A
N73          N74   1.329       .  A
N73         Mn77   2.252   1_554  S
N74          C81   1.363       .  A
N75          N76   1.316       .  A
N75         Mn78   2.197       .  S
N76          C80   1.347       .  A
Mn77        Cl79   2.595       .  S
Mn78        Cl79   2.507       .  S
C80        C2542   1.509       .  S
C81        C2574   1.476       .  S
N82          N83   1.321       .  A
N82          N88   1.311       .  A
N82        Mn111   2.188       .  S
N83          C90   1.357       .  A
N84          N86   1.312       .  A
N84          N85   1.321       .  A
N84        Mn100   2.201   1_554  S
N85          C91   1.357       .  A
N86          N87   1.317       .  A
N86        Mn111   2.179   1_554  S
N87          C91   1.349       .  A
N88          N89   1.312       .  A
N88        Mn100   2.169       .  S
N89          C90   1.345       .  A
C90        C2398   1.480       .  S
C91        C2350   1.486       .  S
N92          N98   1.319       .  A
N92          N93   1.333       .  A
N92        Mn122   2.270   1_554  S
N93         C101   1.367       .  A
N94          N95   1.318       .  A
N94          N96   1.322       .  A
N94        Mn100   2.195       .  S
N95         C102   1.344       .  A
N96          N97   1.332       .  A
N96        Mn122   2.274       .  S
N97         C102   1.366       .  A
N98          N99   1.313       .  A
N98        Mn100   2.172   1_554  S
N99         C101   1.343       .  A
Mn100      Cl124   2.492       .  S
C101       C2414   1.495       .  S
C102       C2462   1.492       .  S
N103        N104   1.311       .  A
N103        N109   1.308       .  A
N103       Mn111   2.170   1_554  S
N104        C112   1.353       .  A
N105        N107   1.310       .  A
N105        N106   1.319       .  A
N105       Mn123   2.182       .  S
N106        C113   1.350       .  A
N107        N108   1.317       .  A
N107       Mn111   2.190       .  S
N108        C113   1.358       .  A
N109        N110   1.322       .  A
N109       Mn123   2.179   1_554  S
N110        C112   1.354       .  A
Mn111      Cl124   2.582       .  S
C112       C2366   1.486       .  S
C113       C2382   1.483       .  S
N114        N115   1.339       .  A
N114        N120   1.319       .  A
N114       Mn122   2.291       .  S
N115        C125   1.374       .  A
N116        N117   1.310       .  A
N116        N118   1.320       .  A
N116       Mn123   2.160   1_554  S
N117        C126   1.338       .  A
N118        N119   1.327       .  A
N118       Mn122   2.243   1_554  S
N119        C126   1.361       .  A
N120        N121   1.307       .  A
N120       Mn123   2.155       .  S
N121        C125   1.333       .  A
Mn122      Cl124   2.612       .  S
Mn123      Cl124   2.488       .  S
C125       C2430   1.507       .  S
C126       C2449   1.468       .  S
C127        C128   1.410       .  D
C127       C2465   1.525       .  S
C127       C2913   1.544       .  S
C128       C2334   1.570       .  S
C128       C2833   1.537       .  S
C129        C130   1.402       .  D
C129       C2318   1.520       .  S
C129       C2673   1.562       .  S
C130       C2302   1.516       .  S
C130       C2446   1.511       .  S
N131        N132   1.331       .  A
N131        N137   1.320       .  A
N131       Mn160   2.250       .  S
N132        C139   1.363       .  A
N133        N135   1.318       .  A
N133        N134   1.314       .  A
N133       Mn149   2.183   1_455  S
N134        C140   1.344       .  A
N135        N136   1.325       .  A
N135       Mn160   2.222   1_455  S
N136        C140   1.357       .  A
N137        N138   1.313       .  A
N137       Mn149   2.195       .  S
N138        C139   1.347       .  A
C139       C2337   1.502       .  S
C140       C2286   1.472       .  S
N141        N147   1.312       .  A
N141        N142   1.314       .  A
N141       Mn171   2.160   1_455  S
N142        C150   1.348       .  A
N143        N144   1.322       .  A
N143        N145   1.311       .  A
N143       Mn149   2.199       .  S
N144        C151   1.355       .  A
N145        N146   1.316       .  A
N145       Mn171   2.176       .  S
N146        C151   1.349       .  A
N147        N148   1.322       .  A
N147       Mn149   2.210   1_455  S
N148        C150   1.356       .  A
Mn149      Cl173   2.492       .  S
C150       C2222   1.479       .  S
C151       C2190   1.478       .  S
N152        N153   1.326       .  A
N152        N158   1.320       .  A
N152       Mn160   2.221   1_455  S
N153        C161   1.356       .  A
N154        N156   1.320       .  A
N154        N155   1.306       .  A
N154       Mn172   2.165       .  S
N155        C162   1.339       .  A
N156        N157   1.333       .  A
N156       Mn160   2.235       .  S
N157        C162   1.362       .  A
N158        N159   1.316       .  A
N158       Mn172   2.196   1_455  S
N159        C161   1.346       .  A
Mn160      Cl173   2.596       .  S
C161       C2254   1.475       .  S
C162       C2273   1.498       .  S
N163        N164   1.313       .  A
N163        N169   1.310       .  A
N163       Mn171   2.170       .  S
N164        C174   1.348       .  A
N165        N166   1.317       .  A
N165        N167   1.310       .  A
N165       Mn172   2.186   1_455  S
N166        C175   1.354       .  A
N167        N168   1.320       .  A
N167       Mn171   2.180   1_455  S
N168        C175   1.352       .  A
N169        N170   1.322       .  A
N169       Mn172   2.199       .  S
N170        C174   1.357       .  A
Mn171      Cl173   2.576       .  S
Mn172      Cl173   2.483       .  S
C174       C2238   1.488       .  S
C175       C2206   1.484       .  S
C176        C177   1.417       .  D
C176       C2545   1.556       .  S
C176       C3502   1.551       .  S
C177       C2289   1.509       .  S
C177       C2849   1.558       .  S
C178        C179   1.394       .  D
C178       C2174   1.508       .  S
C178       C2270   1.505       .  S
C179       C2158   1.568       .  S
C179       C2433   1.562       .  S
C180        C181   1.423       .  D
C180       C2593   1.545       .  S
C180       C2945   1.554       .  S
C181       C2142   1.576       .  S
C181       C2257   1.529       .  S
C182        C183   1.420       .  D
C182       C2126   1.523       .  S
C182       C3489   1.563       .  S
C183       C2417   1.546       .  S
C183       C2897   1.572       .  S
N184        N185   1.331       .  A
N184        N190   1.317       .  A
N184       Mn213   2.237       .  S
N185        C192   1.362       .  A
N186        N188   1.321       .  A
N186        N187   1.317   1_655  A
N186       Mn202   2.195       .  S
N187        C193   1.345       .  A
N188        N189   1.328   1_655  A
N188       Mn213   2.255       .  S
N189        C193   1.363       .  A
N190        N191   1.314       .  A
N190       Mn202   2.186       .  S
N191        C192   1.345       .  A
C192       C2321   1.500       .  S
C193       C2110   1.487       .  S
N194        N200   1.310       .  A
N194        N195   1.312   1_655  A
N194       Mn224   2.140       .  S
N195        C203   1.344       .  A
N196        N197   1.315       .  A
N196        N198   1.313       .  A
N196       Mn202   2.195       .  S
N197        C204   1.352       .  A
N198        N199   1.313       .  A
N198       Mn224   2.155       .  S
N199        C204   1.347       .  A
N200        N201   1.312   1_655  A
N200       Mn202   2.166       .  S
N201        C203   1.350       .  A
Mn202      Cl226   2.498       .  S
C203       C2062   1.445       .  S
C204       C2033   1.470       .  S
N205        N206   1.331   1_655  A
N205        N211   1.316       .  A
N205       Mn213   2.257       .  S
N206        C214   1.366       .  A
N207        N209   1.317       .  A
N207        N208   1.312       .  A
N207       Mn225   2.168       .  S
N208        C215   1.344       .  A
N209        N210   1.326       .  A
N209       Mn213   2.248       .  S
N210        C215   1.365       .  A
N211        N212   1.313   1_655  A
N211       Mn225   2.168       .  S
N212        C214   1.344       .  A
Mn213      Cl226   2.588       .  S
C214       C2094   1.498       .  S
C215       C2129   1.468       .  S
N216        N217   1.313       .  A
N216        N222   1.307       .  A
N216       Mn224   2.157       .  S
N217        C227   1.346       .  A
N218        N219   1.322   1_655  A
N218        N220   1.311       .  A
N218       Mn225   2.196       .  S
N219        C228   1.357       .  A
N220        N221   1.313   1_655  A
N220       Mn224   2.173       .  S
N221        C228   1.347       .  A
N222        N223   1.322       .  A
N222       Mn225   2.188       .  S
N223        C227   1.356       .  A
Mn224      Cl226   2.564       .  S
Mn225      Cl226   2.508       .  S
C227       C2078   1.478       .  S
C228       C2046   1.488       .  S
N229        N230   1.327       .  A
N229        N235   1.314       .  A
N229       Mn258   2.216       .  S
N230        C237   1.358       .  A
N231        N233   1.310       .  A
N231        N232   1.319       .  A
N231       Mn247   2.182   1_554  S
N232        C238   1.352       .  A
N233        N234   1.316       .  A
N233       Mn258   2.176   1_554  S
N234        C238   1.351       .  A
N235        N236   1.323       .  A
N235       Mn247   2.238       .  S
N236        C237   1.360       .  A
C237       C1953   1.517       .  S
C238       C1921   1.479       .  S
N239        N245   1.320       .  A
N239        N240   1.333       .  A
N239       Mn269   2.256       .  S
N240        C248   1.365       .  A
N241        N242   1.313       .  A
N241        N243   1.321       .  A
N241       Mn247   2.186       .  S
N242        C249   1.344       .  A
N243        N244   1.333       .  A
N243       Mn269   2.262   1_556  S
N244        C249   1.364       .  A
N245        N246   1.313       .  A
N245       Mn247   2.208   1_554  S
N246        C248   1.349       .  A
Mn247      Cl271   2.488       .  S
C248       C1982   1.501       .  S
C249       C2014   1.496       .  S
N250        N251   1.322       .  A
N250        N256   1.310       .  A
N250       Mn258   2.205   1_554  S
N251        C259   1.361       .  A
N252        N254   1.309       .  A
N252        N253   1.322       .  A
N252       Mn270   2.168       .  S
N253        C260   1.354       .  A
N254        N255   1.304       .  A
N254       Mn258   2.157       .  S
N255        C260   1.349       .  A
N256        N257   1.317       .  A
N256       Mn270   2.171   1_554  S
N257        C259   1.346       .  A
Mn258      Cl271   2.587       .  S
C259       C1937   1.479       .  S
C260       C1902   1.477       .  S
N261        N262   1.329       .  A
N261        N267   1.320       .  A
N261       Mn269   2.242   1_556  S
N262        C272   1.360       .  A
N263        N264   1.308       .  A
N263        N265   1.316       .  A
N263       Mn270   2.154   1_554  S
N264        C273   1.333       .  A
N265        N266   1.332       .  A
N265       Mn269   2.264       .  S
N266        C273   1.369       .  A
N267        N268   1.317       .  A
N267       Mn270   2.200       .  S
N268        C272   1.346       .  A
Mn269      Cl271   2.609   1_554  S
Mn270      Cl271   2.488       .  S
C272       C1966   1.484       .  S
C273       C1998   1.480       .  S
N274        N275   1.322       .  A
N274        N280   1.316       .  A
N274       Mn303   2.197       .  S
N275        C282   1.352       .  A
N276        N278   1.311       .  A
N276        N277   1.326       .  A
N276       Mn292   2.187   1_545  S
N277        C283   1.354       .  A
N278        N279   1.309       .  A
N278       Mn303   2.187   1_545  S
N279        C283   1.350       .  A
N280        N281   1.321       .  A
N280       Mn292   2.223       .  S
N281        C282   1.356       .  A
C282       C1822   1.483       .  S
C283       C1790   1.484       .  S
N284        N290   1.321       .  A
N284        N285   1.329   1_565  A
N284       Mn314   2.249       .  S
N285        C293   1.362       .  A
N286        N287   1.318       .  A
N286        N288   1.318       .  A
N286       Mn292   2.181       .  S
N287        C294   1.346       .  A
N288        N289   1.325       .  A
N288       Mn314   2.247       .  S
N289        C294   1.362       .  A
N290        N291   1.315   1_565  A
N290       Mn292   2.193       .  S
N291        C293   1.344       .  A
Mn292      Cl316   2.509       .  S
C293       C1838   1.481       .  S
C294       C1886   1.493       .  S
N295        N296   1.329       .  A
N295        N301   1.315   1_545  A
N295       Mn303   2.261   1_545  S
N296        C304   1.363       .  A
N297        N299   1.309       .  A
N297        N298   1.314       .  A
N297       Mn315   2.154       .  S
N298        C305   1.348       .  A
N299        N300   1.321       .  A
N299       Mn303   2.198       .  S
N300        C305   1.355       .  A
N301        N302   1.319   1_565  A
N301       Mn315   2.172       .  S
N302        C304   1.345       .  A
Mn303      Cl316   2.578       .  S
C304       C1806   1.487       .  S
C305       C1774   1.485       .  S
N306        N307   1.323       .  A
N306        N312   1.318       .  A
N306       Mn314   2.221       .  S
N307        C317   1.357       .  A
N308        N309   1.310   1_565  A
N308        N310   1.317       .  A
N308       Mn315   2.148       .  S
N309        C318   1.336       .  A
N310        N311   1.337   1_565  A
N310       Mn314   2.284       .  S
N311        C318   1.371       .  A
N312        N313   1.315       .  A
N312       Mn315   2.181       .  S
N313        C317   1.346       .  A
Mn314      Cl316   2.591       .  S
Mn315      Cl316   2.502       .  S
C317       C1854   1.478       .  S
C318       C1870   1.498       .  S
C319        C320   1.404       .  D
C319       C1758   1.528       .  S
C319       C2977   1.537       .  S
C320       C1889   1.532       .  S
C320       C2785   1.542       .  S
C321        C322   1.410       .  D
C321       C1969   1.531       .  S
C321       C2881   1.571       .  S
C322       C1742   1.536       .  S
C322       C1873   1.541       .  S
C323        C324   1.408       .  D
C323       C1710   1.517       .  S
C323       C1726   1.537       .  S
C324       C1694   1.567       .  S
C324       C1857   1.505       .  S
N325        N326   1.326       .  A
N325        N331   1.319       .  A
N325       Mn354   2.240   1_556  S
N326        C333   1.360       .  A
N327        N329   1.316       .  A
N327        N328   1.308       .  A
N327       Mn343   2.149       .  S
N328        C334   1.339       .  A
N329        N330   1.327       .  A
N329       Mn354   2.234       .  S
N330        C334   1.363       .  A
N331        N332   1.314       .  A
N331       Mn343   2.174   1_556  S
N332        C333   1.343       .  A
C333       C1761   1.472       .  S
C334       C1681   1.479       .  S
N335        N341   1.311       .  A
N335        N336   1.322       .  A
N335       Mn365   2.213       .  S
N336        C344   1.359       .  A
N337        N338   1.319       .  A
N337        N339   1.309       .  A
N337       Mn343   2.173   1_556  S
N338        C345   1.351       .  A
N339        N340   1.313       .  A
N339       Mn365   2.169   1_556  S
N340        C345   1.349       .  A
N341        N342   1.319       .  A
N341       Mn343   2.177       .  S
N342        C344   1.348       .  A
Mn343      Cl367   2.501       .  S
C344       C1614   1.488       .  S
C345       C1630   1.466       .  S
N346        N347   1.329       .  A
N346        N352   1.320       .  A
N346       Mn354   2.257       .  S
N347        C355   1.363       .  A
N348        N350   1.317       .  A
N348        N349   1.312       .  A
N348       Mn366   2.183   1_556  S
N349        C356   1.347       .  A
N350        N351   1.327       .  A
N350       Mn354   2.227   1_556  S
N351        C356   1.359       .  A
N352        N353   1.318       .  A
N352       Mn366   2.188       .  S
N353        C355   1.345       .  A
Mn354      Cl367   2.584       .  S
C355       C1665   1.495       .  S
C356       C1729   1.488       .  S
N357        N358   1.320       .  A
N357        N363   1.313       .  A
N357       Mn365   2.196   1_556  S
N358        C368   1.355       .  A
N359        N360   1.318       .  A
N359        N361   1.310       .  A
N359       Mn366   2.173       .  S
N360        C369   1.354       .  A
N361        N362   1.308       .  A
N361       Mn365   2.151       .  S
N362        C369   1.343       .  A
N363        N364   1.316       .  A
N363       Mn366   2.192   1_556  S
N364        C368   1.350       .  A
Mn365      Cl367   2.564       .  S
Mn366      Cl367   2.504       .  S
C368       C1646   1.487       .  S
C369       C1598   1.468       .  S
C370        C371   1.415       .  D
C370       C1678   1.522       .  S
C370       C2961   1.548       .  S
C371       C1582   1.513       .  S
C371       C3377   1.551       .  S
C372        C373   1.391       .  D
C372       C2017   1.530       .  S
C372       C3553   1.519       .  S
C373       C1841   1.515       .  S
C373       C2766   1.542       .  S
C374        C375   1.407       .  D
C374       C1569   1.529       .  S
C374       C2622   1.538       .  S
C375       C1553   1.562       .  S
C375       C1662   1.529       .  S
N376        N377   1.327       .  A
N376        N382   1.320       .  A
N376       Mn405   2.242       .  S
N377        C384   1.362       .  A
N378        N380   1.321       .  A
N378        N379   1.321   1_565  A
N378       Mn394   2.206       .  S
N379        C385   1.350       .  A
N380        N381   1.330   1_565  A
N380       Mn405   2.239       .  S
N381        C385   1.357       .  A
N382        N383   1.310       .  A
N382       Mn394   2.170       .  S
N383        C384   1.341       .  A
C384       C1585   1.471       .  S
C385       C1534   1.501       .  S
N386        N392   1.316       .  A
N386        N387   1.312   1_565  A
N386       Mn416   2.196       .  S
N387        C395   1.347       .  A
N388        N389   1.321       .  A
N388        N390   1.309       .  A
N388       Mn394   2.185       .  S
N389        C396   1.352       .  A
N390        N391   1.307       .  A
N390       Mn416   2.135       .  S
N391        C396   1.346       .  A
N392        N393   1.326   1_565  A
N392       Mn394   2.215       .  S
N393        C395   1.360       .  A
Mn394      Cl418   2.511       .  S
C395       C1489   1.493       .  S
C396       C1454   1.465       .  S
N397        N398   1.328   1_565  A
N397        N403   1.318       .  A
N397       Mn405   2.238       .  S
N398        C406   1.363       .  A
N399        N401   1.317       .  A
N399        N400   1.312       .  A
N399       Mn417   2.160       .  S
N400        C407   1.340       .  A
N401        N402   1.328       .  A
N401       Mn405   2.234       .  S
N402        C407   1.361       .  A
N403        N404   1.305   1_565  A
N403       Mn417   2.161       .  S
N404        C406   1.341       .  A
Mn405      Cl418   2.583       .  S
C406       C1518   1.488       .  S
C407       C1566   1.483       .  S
N408        N409   1.331       .  A
N408        N414   1.312       .  A
N408       Mn416   2.248       .  S
N409        C419   1.364       .  A
N410        N411   1.322   1_565  A
N410        N412   1.308       .  A
N410       Mn417   2.189       .  S
N411        C420   1.353       .  A
N412        N413   1.320   1_565  A
N412       Mn416   2.184       .  S
N413        C420   1.353       .  A
N414        N415   1.321       .  A
N414       Mn417   2.196       .  S
N415        C419   1.351       .  A
Mn416      Cl418   2.558       .  S
Mn417      Cl418   2.499       .  S
C419       C1502   1.504       .  S
C420       C1470   1.486       .  S
N421        N422   1.311       .  A
N421        N427   1.310       .  A
N421       Mn450   2.142       .  S
N422        C429   1.346       .  A
N423        N425   1.310       .  A
N423        N424   1.317       .  A
N423       Mn439   2.177   1_545  S
N424        C430   1.353       .  A
N425        N426   1.317       .  A
N425       Mn450   2.184   1_545  S
N426        C430   1.352       .  A
N427        N428   1.321       .  A
N427       Mn439   2.208       .  S
N428        C429   1.357       .  A
C429       C1374   1.476       .  S
C430       C1342   1.485       .  S
N431        N437   1.320       .  A
N431        N432   1.327       .  A
N431       Mn461   2.259   1_545  S
N432        C440   1.365       .  A
N433        N434   1.313       .  A
N433        N435   1.320       .  A
N433       Mn439   2.162       .  S
N434        C441   1.339       .  A
N435        N436   1.334       .  A
N435       Mn461   2.290       .  S
N436        C441   1.369       .  A
N437        N438   1.319       .  A
N437       Mn439   2.200   1_545  S
N438        C440   1.348       .  A
Mn439      Cl463   2.499       .  S
C440       C1390   1.491       .  S
C441       C1438   1.487       .  S
N442        N443   1.308   1_565  A
N442        N448   1.309   1_565  A
N442       Mn450   2.141       .  S
N443        C451   1.345       .  A
N444        N446   1.311       .  A
N444        N445   1.314       .  A
N444       Mn462   2.149       .  S
N445        C452   1.341       .  A
N446        N447   1.319       .  A
N446       Mn450   2.194       .  S
N447        C452   1.355       .  A
N448        N449   1.319       .  A
N448       Mn462   2.178   1_545  S
N449        C451   1.354       .  A
Mn450      Cl463   2.570       .  S
C451       C1358   1.463       .  S
C452       C1326   1.455       .  S
N453        N454   1.333       .  A
N453        N459   1.319       .  A
N453       Mn461   2.268       .  S
N454        C464   1.368       .  A
N455        N456   1.307       .  A
N455        N457   1.318       .  A
N455       Mn462   2.167   1_545  S
N456        C465   1.338       .  A
N457        N458   1.337       .  A
N457       Mn461   2.264   1_545  S
N458        C465   1.368       .  A
N459        N460   1.310       .  A
N459       Mn462   2.158       .  S
N460        C464   1.335       .  A
Mn461      Cl463   2.608       .  S
Mn462      Cl463   2.482       .  S
C464       C1409   1.480       .  S
C465       C1425   1.504       .  S
N466        N467   1.312   1_655  A
N466        N472   1.310       .  A
N466       Mn495   2.171       .  S
N467        C474   1.348       .  A
N468        N470   1.311       .  A
N468        N469   1.321       .  A
N468       Mn484   2.192       .  S
N469        C475   1.354       .  A
N470        N471   1.315       .  A
N470       Mn495   2.175       .  S
N471        C475   1.349       .  A
N472        N473   1.320   1_655  A
N472       Mn484   2.178       .  S
N473        C474   1.354       .  A
C474       C1246   1.477       .  S
C475       C1198   1.475       .  S
N476        N482   1.318       .  A
N476        N477   1.332       .  A
N476       Mn506   2.263       .  S
N477        C485   1.367       .  A
N478        N479   1.314   1_655  A
N478        N480   1.321       .  A
N478       Mn484   2.178       .  S
N479        C486   1.341       .  A
N480        N481   1.333   1_655  A
N480       Mn506   2.277       .  S
N481        C486   1.367       .  A
N482        N483   1.309       .  A
N482       Mn484   2.154       .  S
N483        C485   1.338       .  A
Mn484      Cl508   2.495       .  S
C485       C1262   1.488       .  S
C486       C1310   1.492       .  S
N487        N488   1.319       .  A
N487        N493   1.311       .  A
N487       Mn495   2.186       .  S
N488        C496   1.352       .  A
N489        N491   1.311       .  A
N489        N490   1.322   1_655  A
N489       Mn507   2.200       .  S
N490        C497   1.354       .  A
N491        N492   1.318   1_655  A
N491       Mn495   2.182       .  S
N492        C497   1.353       .  A
N493        N494   1.321       .  A
N493       Mn507   2.191       .  S
N494        C496   1.353       .  A
Mn495      Cl508   2.574       .  S
C496       C1230   1.484       .  S
C497       C1217   1.491       .  S
N498        N499   1.332   1_655  A
N498        N504   1.322       .  A
N498       Mn506   2.275       .  S
N499        C509   1.365       .  A
N500        N501   1.312       .  A
N500        N502   1.319       .  A
N500       Mn507   2.177       .  S
N501        C510   1.344       .  A
N502        N503   1.332       .  A
N502       Mn506   2.262       .  S
N503        C510   1.366       .  A
N504        N505   1.315   1_655  A
N504       Mn507   2.172       .  S
N505        C509   1.339       .  A
Mn506      Cl508   2.604       .  S
Mn507      Cl508   2.495       .  S
C509       C1278   1.489       .  S
C510       C1294   1.500       .  S
C511        C512   1.406       .  D
C511       C1182   1.534       .  S
C511       C2657   1.535       .  S
C512       C1265   1.524       .  S
C512       C3457   1.555       .  S
N513        N514   1.309   1_565  A
N513        N519   1.312       .  A
N513       Mn542   2.134       .  S
N514        C521   1.343       .  A
N515        N517   1.315       .  A
N515        N516   1.318       .  A
N515       Mn531   2.215       .  S
N516        C522   1.356       .  A
N517        N518   1.316       .  A
N517       Mn542   2.164       .  S
N518        C522   1.346       .  A
N519        N520   1.321   1_565  A
N519       Mn531   2.203       .  S
N520        C521   1.354       .  A
C521       C1102   1.462       .  S
C522       C1070   1.478       .  S
N523        N529   1.324       .  A
N523        N524   1.333       .  A
N523       Mn553   2.256       .  S
N524        C532   1.361       .  A
N525        N526   1.315   1_565  A
N525        N527   1.320       .  A
N525       Mn531   2.185       .  S
N526        C533   1.344       .  A
N527        N528   1.330   1_565  A
N527       Mn553   2.263       .  S
N528        C533   1.364       .  A
N529        N530   1.322       .  A
N529       Mn531   2.229       .  S
N530        C532   1.353       .  A
Mn531      Cl555   2.504       .  S
C532       C1134   1.507       .  S
C533       C1185   1.482       .  S
N534        N535   1.317       .  A
N534        N540   1.308       .  A
N534       Mn542   2.172       .  S
N535        C543   1.349       .  A
N536        N538   1.310       .  A
N536        N537   1.318   1_565  A
N536       Mn554   2.203       .  S
N537        C544   1.355       .  A
N538        N539   1.328   1_565  A
N538       Mn542   2.201       .  S
N539        C544   1.357       .  A
N540        N541   1.325       .  A
N540       Mn554   2.213       .  S
N541        C543   1.360       .  A
Mn542      Cl555   2.595       .  S
C543       C1118   1.498       .  S
C544       C1086   1.493       .  S
N545        N546   1.328   1_565  A
N545        N551   1.321       .  A
N545       Mn553   2.240       .  S
N546        C556   1.359       .  A
N547        N548   1.307       .  A
N547        N549   1.320       .  A
N547       Mn554   2.167       .  S
N548        C557   1.340       .  A
N549        N550   1.336       .  A
N549       Mn553   2.273       .  S
N550        C557   1.369       .  A
N551        N552   1.316   1_565  A
N551       Mn554   2.192       .  S
N552        C556   1.344       .  A
Mn553      Cl555   2.596       .  S
Mn554      Cl555   2.498       .  S
C556       C1150   1.481       .  S
C557       C1166   1.506       .  S
C558        C559   1.397       .  D
C558       C1038   1.510       .  S
C558       C1169   1.531       .  S
C559       C1022   1.538       .  S
C559       C1054   1.508       .  S
N560        N561   1.329       .  A
N560        N566   1.319       .  A
N560       Mn589   2.257       .  S
N561        C568   1.365       .  A
N562        N564   1.318       .  A
N562        N563   1.313       .  A
N562       Mn578   2.170       .  S
N563        C569   1.341       .  A
N564        N565   1.329       .  A
N564       Mn589   2.255       .  S
N565        C569   1.364       .  A
N566        N567   1.311       .  A
N566       Mn578   2.167       .  S
N567        C568   1.342       .  A
C568        C926   1.498       .  S
C569        C958   1.481       .  S
N570        N576   1.312       .  A
N570        N571   1.320       .  A
N570       Mn600   2.210       .  S
N571        C579   1.357       .  A
N572        N573   1.319       .  A
N572        N574   1.310       .  A
N572       Mn578   2.189       .  S
N573        C580   1.354       .  A
N574        N575   1.321       .  A
N574       Mn600   2.194       .  S
N575        C580   1.354       .  A
N576        N577   1.321       .  A
N576       Mn578   2.176       .  S
N577        C579   1.349       .  A
Mn578      Cl602   2.491       .  S
C579       C1006   1.483       .  S
C580       C1057   1.492       .  S
N581        N582   1.330       .  A
N581        N587   1.317       .  A
N581       Mn589   2.251   1_455  S
N582        C590   1.365       .  A
N583        N585   1.319       .  A
N583        N584   1.316       .  A
N583       Mn601   2.189       .  S
N584        C591   1.344       .  A
N585        N586   1.333       .  A
N585       Mn589   2.264   1_455  S
N586        C591   1.366       .  A
N587        N588   1.310       .  A
N587       Mn601   2.171       .  S
N588        C590   1.343       .  A
Mn589      Cl602   2.605       .  S
C590        C910   1.477       .  S
C591        C942   1.496       .  S
N592        N593   1.316       .  A
N592        N598   1.313       .  A
N592       Mn600   2.190   1_455  S
N593        C603   1.351       .  A
N594        N595   1.317       .  A
N594        N596   1.311       .  A
N594       Mn601   2.170       .  S
N595        C604   1.348       .  A
N596        N597   1.316       .  A
N596       Mn600   2.182   1_455  S
N597        C604   1.352       .  A
N598        N599   1.318       .  A
N598       Mn601   2.181       .  S
N599        C603   1.351       .  A
Mn600      Cl602   2.575       .  S
Mn601      Cl602   2.486   1_455  S
C603        C990   1.471       .  S
C604        C974   1.468       .  S
C605        C606   1.412       .  D
C605       C1009   1.518       .  S
C605       C2718   1.540       .  S
C606       C1137   1.542       .  S
C606       C2638   1.566       .  S
C607        C608   1.391       .  D
C607        C894   1.525       .  S
C607        C993   1.508       .  S
C608       C1406   1.521       .  S
C608       C2737   1.518       .  S
C609        C610   1.421       .  D
C609       C1297   1.542       .  S
C609       C2817   1.544       .  S
C610        C878   1.569       .  S
C610       C1153   1.515       .  S
C611        C612   1.410       .  D
C611       C1441   1.527       .  S
C611       C3425   1.557       .  S
C612        C977   1.515       .  S
C612       C2705   1.535       .  S
C613        C614   1.405       .  D
C613       C1313   1.522       .  S
C613       C3473   1.561       .  S
C614       C1393   1.541       .  S
C614       C3393   1.530       .  S
C615        C616   1.402       .  D
C615       C1281   1.529       .  S
C615       C2801   1.534       .  S
C616       C1422   1.521       .  S
C616       C2750   1.559       .  S
C617        C618   1.395       .  D
C617       C1329   1.507       .  S
C617       C3281   1.540       .  S
C618        C862   1.498       .  S
C618       C1825   1.524       .  S
C619        C620   1.405       .  D
C619       C2225   1.508       .  S
C619       C3009   1.562       .  S
C620       C1214   1.519       .  S
C620       C3697   1.496       .  S
C621        C622   1.402       .  D
C621       C2081   1.514       .  S
C621       C3166   1.563       .  S
C622       C1201   1.526       .  S
C622       C3342   1.498       .  S
C623        C624   1.405       .  D
C623       C1345   1.517       .  S
C623       C3713   1.503       .  S
C624       C1486   1.522       .  S
C624       C3601   1.562       .  S
C625        C626   1.409       .  D
C625       C1377   1.495       .  S
C625       C3297   1.532       .  S
C626       C1457   1.500       .  S
C626       C3217   1.539       .  S
C627        C628   1.405       .  D
C627       C1249   1.502       .  S
C627       C3742   1.535       .  S
C628       C2049   1.514       .  S
C628       C3633   1.534       .  S
C629        C630   1.383       .  D
C629       C1361   1.489       .  S
C629       C3726   1.528       .  S
C630       C1793   1.529       .  S
C630       C3054   1.520       .  S
C631        C632   1.382       .  D
C631       C1233   1.518       .  S
C631       C3361   1.517       .  S
C632        C846   1.505       .  S
C632       C2193   1.520       .  S
C633        C634   1.404       .  D
C633       C1985   1.569       .  S
C633       C3518   1.540       .  S
C634       C1537   1.548       .  S
C634       C3409   1.556       .  S
C635        C636   1.390       .  D
C635       C2001   1.527       .  S
C635       C2862   1.512       .  S
C636       C1521   1.503       .  S
C636       C2609   1.536       .  S
C637        C638   1.419       .  D
C637       C2481   1.518       .  S
C637       C3025   1.555       .  S
C638       C1950   1.521       .  S
C638       C3105   1.544       .  S
C639        C640   1.403       .  D
C639        C830   1.547       .  S
C639       C2401   1.508       .  S
C640       C1905   1.527       .  S
C640       C3089   1.520       .  S
C641        C642   1.396       .  D
C641       C1505   1.567       .  S
C641       C3233   1.516       .  S
C642        C814   1.528       .  S
C642       C1073   1.504       .  S
C643        C644   1.391       .  D
C643       C1105   1.503       .  S
C643       C3329   1.502       .  S
C644       C1473   1.521       .  S
C644       C3566   1.535       .  S
C645        C646   1.416       .  D
C645        C782   1.528       .  S
C645       C2385   1.550       .  S
C646        C798   1.564       .  S
C646       C1649   1.522       .  S
C647        C648   1.402       .  D
C647       C2113   1.521       .  S
C647       C2686   1.527       .  S
C648       C2558   1.535       .  S
C648       C2929   1.558       .  S
C649        C650   1.389       .  D
C649       C2577   1.509       .  S
C649       C3534   1.531       .  S
C650       C2097   1.547       .  S
C650       C3441   1.524       .  S
C651        C652   1.402       .  D
C651       C2529   1.528       .  S
C651       C3041   1.474       .  S
C652        C766   1.558       .  S
C652       C1633   1.495       .  S
C653        C654   1.373       .  D
C653        C913   1.539       .  S
C653       C3249   1.516       .  S
C654       C2065   1.503       .  S
C654       C3665   1.500       .  S
C655        C656   1.396       .  D
C655        C750   1.548       .  S
C655        C961   1.521       .  S
C656       C2030   1.509       .  S
C656       C3153   1.515       .  S
C657        C658   1.394       .  D
C657        C734   1.542       .  S
C657       C2241   1.502       .  S
C658        C718   1.510       .  S
C658        C929   1.540       .  S
C659        C660   1.393       .  D
C659       C1089   1.536       .  S
C659       C3313   1.518       .  S
C660       C1809   1.543       .  S
C660       C3073   1.511       .  S
C661        C662   1.405       .  D
C661        C702   1.511       .  S
C661       C1121   1.517       .  S
C662        C686   1.564       .  S
C662       C1777   1.505       .  S
C663        C664   1.403       .  D
C663        C945   1.538       .  S
C663       C3265   1.565       .  S
C664       C2209   1.521       .  S
C664       C2993   1.502       .  S
C665        C666   1.409       .  D
C665       C2145   1.550       .  S
C665       C2177   1.558       .  S
C666        C897   1.536       .  S
C666       C1025   1.532       .  S
C667        C668   1.415       .  D
C667       C1697   1.513       .  S
C667       C1745   1.545       .  S
C668        C881   1.523       .  S
C668       C1041   1.566       .  S
C669        C670   1.408       .  D
C669       C2161   1.511       .  S
C669       C2305   1.543   1_556  S
C670       C1550   1.519   1_556  S
C670       C1713   1.576       .  S
C671        C672   1.403       .  D
C671        C769   1.508       .  S
C671        C801   1.516       .  S
C672        C689   1.540       .  S
C672        C865   1.574       .  S
C673        C674   1.413       .  D
C673        C785   1.559       .  S
C673        C833   1.513       .  S
C674        C737   1.510       .  S
C674        C849   1.589       .  S
C675        C676   1.407       .  D
C675        C705   1.522       .  S
C675        C817   1.538       .  S
C676        C721   1.569       .  S
C676        C753   1.514       .  S
C677        C678   1.387       .  D
C677       C2353   1.495       .  S
C677       C3121   1.507       .  S
C678       C1934   1.554       .  S
C678       C3617   1.523       .  S
C679        C680   1.399       .  D
C679       C1601   1.499       .  S
C679       C3185   1.531       .  S
C680       C2369   1.516       .  S
C680       C3137   1.535       .  S
C681        C682   1.385       .  D
C681       C1617   1.513       .  S
C681       C3201   1.495       .  S
C682       C2497   1.518       .  S
C682       C3646   1.538       .  S
C683        C684   1.387       .  D
C683       C2510   1.500       .  S
C683       C3678   1.556       .  S
C684       C1918   1.524       .  S
C684       C3582   1.471       .  S
C685        C686   1.422       .  A
C685        C690   1.395       .  A
C685        H692   1.074       .  S
C686        C687   1.430       .  A
C687        C688   1.430       .  A
C687        C694   1.509       .  S
C688        C689   1.418       .  A
C688        H693   1.079       .  S
C689        C690   1.412       .  A
C690        C691   1.515       .  S
C691        F695   1.382       .  S
C691        F696   1.381       .  S
C691        F697   1.372       .  S
C694        F698   1.380       .  S
C694        F699   1.380       .  S
C694        F700   1.385       .  S
C701        C702   1.418       .  A
C701        C706   1.411       .  A
C701        H708   1.079       .  S
C702        C703   1.420       .  A
C703        C704   1.410       .  A
C703        C710   1.521       .  S
C704        C705   1.412       .  A
C704        H709   1.063       .  S
C705        C706   1.417       .  A
C706        C707   1.516       .  S
C707        F711   1.381       .  S
C707        F712   1.369       .  S
C707        F713   1.385       .  S
C710        F714   1.384       .  S
C710        F715   1.373       .  S
C710        F716   1.383       .  S
C717        C718   1.413       .  A
C717        C722   1.430       .  A
C717        H724   1.084       .  S
C718        C719   1.417       .  A
C719        C720   1.397       .  A
C719        C726   1.517       .  S
C720        C721   1.418       .  A
C720        H725   1.078       .  S
C721        C722   1.432       .  A
C722        C723   1.507       .  S
C723        F727   1.385       .  S
C723        F728   1.381       .  S
C723        F729   1.377       .  S
C726        F730   1.367       .  S
C726        F731   1.369       .  S
C726        F732   1.385       .  S
C733        C734   1.423       .  A
C733        C738   1.408       .  A
C733        H740   1.076       .  S
C734        C735   1.441       .  A
C735        C736   1.412       .  A
C735        C742   1.514       .  S
C736        C737   1.400       .  A
C736        H741   1.082       .  S
C737        C738   1.433       .  A
C738        C739   1.542       .  S
C739        F743   1.384       .  S
C739        F744   1.379       .  S
C739        F745   1.378       .  S
C742        F746   1.368       .  S
C742        F747   1.373       .  S
C742        F748   1.386       .  S
C749        C750   1.420       .  A
C749        C754   1.416       .  A
C749        H756   1.068       .  S
C750        C751   1.431       .  A
C751        C752   1.400       .  A
C751        C758   1.521       .  S
C752        C753   1.402       .  A
C752        H757   1.081       .  S
C753        C754   1.416       .  A
C754        C755   1.518       .  S
C755        F759   1.382       .  S
C755        F760   1.381       .  S
C755        F761   1.379       .  S
C758        F762   1.377       .  S
C758        F763   1.380       .  S
C758        F764   1.384       .  S
C765        C766   1.421       .  A
C765        C770   1.421       .  A
C765        H772   1.060       .  S
C766        C767   1.441       .  A
C767        C768   1.402       .  A
C767        C774   1.538       .  S
C768        C769   1.408       .  A
C768        H773   1.079       .  S
C769        C770   1.418       .  A
C770        C771   1.518       .  S
C771        F775   1.380       .  S
C771        F776   1.379       .  S
C771        F777   1.385       .  S
C774        F778   1.377       .  S
C774        F779   1.375       .  S
C774        F780   1.378       .  S
C781        C782   1.395       .  A
C781        C786   1.410       .  A
C781        H788   1.087       .  S
C782        C783   1.440       .  A
C783        C784   1.420       .  A
C783        C790   1.520       .  S
C784        C785   1.415       .  A
C784        H789   1.072       .  S
C785        C786   1.439       .  A
C786        C787   1.497       .  S
C787        F791   1.384       .  S
C787        F792   1.377       .  S
C787        F793   1.366       .  S
C790        F794   1.381       .  S
C790        F795   1.376       .  S
C790        F796   1.384       .  S
C797        C798   1.412       .  A
C797        C802   1.418       .  A
C797        H804   1.059       .  S
C798        C799   1.450       .  A
C799        C800   1.404       .  A
C799        C806   1.518       .  S
C800        C801   1.388       .  A
C800        H805   1.079       .  S
C801        C802   1.415       .  A
C802        C803   1.513       .  S
C803        F807   1.384       .  S
C803        F808   1.376       .  S
C803        F809   1.381       .  S
C806        F810   1.377       .  S
C806        F811   1.380       .  S
C806        F812   1.384       .  S
C813        C814   1.410       .  A
C813        C818   1.415       .  A
C813        H820   1.070       .  S
C814        C815   1.420       .  A
C815        C816   1.405       .  A
C815        C822   1.516       .  S
C816        C817   1.408       .  A
C816        H821   1.071       .  S
C817        C818   1.427       .  A
C818        C819   1.514       .  S
C819        F823   1.382       .  S
C819        F824   1.378       .  S
C819        F825   1.384       .  S
C822        F826   1.382       .  S
C822        F827   1.378       .  S
C822        F828   1.383       .  S
C829        C830   1.406       .  A
C829        C834   1.426       .  A
C829        H836   1.075       .  S
C830        C831   1.429       .  A
C831        C832   1.404       .  A
C831        C838   1.515       .  S
C832        C833   1.397       .  A
C832        H837   1.084       .  S
C833        C834   1.438       .  A
C834        C835   1.519       .  S
C835        F839   1.381       .  S
C835        F840   1.383       .  S
C835        F841   1.380       .  S
C838        F842   1.382       .  S
C838        F843   1.382       .  S
C838        F844   1.386       .  S
C845        C846   1.390       .  A
C845        C850   1.393       .  A
C845        H852   1.084       .  S
C846        C847   1.410       .  A
C847        C848   1.426       .  A
C847        C854   1.523       .  S
C848        C849   1.434       .  A
C848        H853   1.053       .  S
C849        C850   1.438       .  A
C850        C851   1.510       .  S
C851        F855   1.380       .  S
C851        F856   1.373       .  S
C851        F857   1.358       .  S
C854        F858   1.378       .  S
C854        F859   1.382       .  S
C854        F860   1.384       .  S
C861        C862   1.383       .  A
C861        C866   1.408       .  A
C861        H868   1.084       .  S
C862        C863   1.410       .  A
C863        C864   1.410       .  A
C863        C870   1.517       .  S
C864        C865   1.427       .  A
C864        H869   1.080       .  S
C865        C866   1.465       .  A
C866        C867   1.506       .  S
C867        F871   1.386       .  S
C867        F872   1.355       .  S
C867        F873   1.365       .  S
C870        F874   1.382       .  S
C870        F875   1.384       .  S
C870        F876   1.384       .  S
C877        C878   1.421       .  A
C877        C882   1.430       .  A
C877        H884   1.063       .  S
C878        C879   1.450       .  A
C879        C880   1.405   1_545  A
C879        C886   1.533       .  S
C880        C881   1.400       .  A
C880        H885   1.085       .  S
C881        C882   1.421   1_565  A
C882        C883   1.520       .  S
C883        F887   1.384       .  S
C883        F888   1.380   1_545  S
C883        F889   1.381       .  S
C886        F890   1.375       .  S
C886        F891   1.376       .  S
C886        F892   1.382       .  S
C893        C894   1.410       .  A
C893        C898   1.394   1_455  A
C893        H900   1.081       .  S
C894        C895   1.426       .  A
C895        C896   1.422       .  A
C895        C902   1.511       .  S
C896        C897   1.417   1_455  A
C896        H901   1.070       .  S
C897        C898   1.422       .  A
C898        C899   1.516       .  S
C899        F903   1.385       .  S
C899        F904   1.369       .  S
C899        F905   1.374       .  S
C902        F906   1.383       .  S
C902        F907   1.372       .  S
C902        F908   1.382       .  S
C909        C910   1.399       .  A
C909        C914   1.397       .  A
C909        H916   1.081       .  S
C910        C911   1.412       .  A
C911        C912   1.418       .  A
C911        C918   1.513       .  S
C912        C913   1.419       .  A
C912        H917   1.078       .  S
C913        C914   1.401       .  A
C914        C915   1.501       .  S
C915        F919   1.385       .  S
C915        F920   1.378       .  S
C915        F921   1.374       .  S
C918        F922   1.384       .  S
C918        F923   1.383       .  S
C918        F924   1.383       .  S
C925        C926   1.411       .  A
C925        C930   1.411       .  A
C925        H932   1.082       .  S
C926        C927   1.411       .  A
C927        C928   1.409       .  A
C927        C934   1.520       .  S
C928        C929   1.419       .  A
C928        H933   1.066       .  S
C929        C930   1.421       .  A
C930        C931   1.516       .  S
C931        F935   1.385       .  S
C931        F936   1.377       .  S
C931        F937   1.373       .  S
C934        F938   1.383       .  S
C934        F939   1.378       .  S
C934        F940   1.380       .  S
C941        C942   1.403       .  A
C941        C946   1.412       .  A
C941        H948   1.085       .  S
C942        C943   1.417       .  A
C943        C944   1.418       .  A
C943        C950   1.517       .  S
C944        C945   1.413       .  A
C944        H949   1.083       .  S
C945        C946   1.426       .  A
C946        C947   1.514       .  S
C947        F951   1.384       .  S
C947        F952   1.374       .  S
C947        F953   1.383       .  S
C950        F954   1.377       .  S
C950        F955   1.381       .  S
C950        F956   1.384       .  S
C957        C958   1.402       .  A
C957        C962   1.413       .  A
C957        H964   1.085       .  S
C958        C959   1.413       .  A
C959        C960   1.407       .  A
C959        C966   1.518       .  S
C960        C961   1.403       .  A
C960        H965   1.073       .  S
C961        C962   1.430       .  A
C962        C963   1.519       .  S
C963        F967   1.384       .  S
C963        F968   1.381       .  S
C963        F969   1.380       .  S
C966        F970   1.381       .  S
C966        F971   1.382       .  S
C966        F972   1.378       .  S
C973        C974   1.403       .  A
C973        C978   1.404       .  A
C973        H980   1.085       .  S
C974        C975   1.409       .  A
C975        C976   1.395       .  A
C975        C982   1.521       .  S
C976        C977   1.411       .  A
C976        H981   1.074       .  S
C977        C978   1.418       .  A
C978        C979   1.512       .  S
C979        F983   1.384       .  S
C979        F984   1.382       .  S
C979        F985   1.380       .  S
C982        F986   1.384       .  S
C982        F987   1.381       .  S
C982        F988   1.385       .  S
C989        C990   1.404       .  A
C989        C994   1.403       .  A
C989        H996   1.085       .  S
C990        C991   1.413       .  A
C991        C992   1.395       .  A
C991        C998   1.521       .  S
C992        C993   1.408       .  A
C992        H997   1.081       .  S
C993        C994   1.421       .  A
C994        C995   1.520       .  S
C995        F999   1.382       .  S
C995       F1000   1.376       .  S
C995       F1001   1.383       .  S
C998       F1002   1.378       .  S
C998       F1003   1.384       .  S
C998       F1004   1.384       .  S
C1005      C1006   1.403       .  A
C1005      C1010   1.411       .  A
C1005      H1012   1.083       .  S
C1006      C1007   1.407       .  A
C1007      C1008   1.404       .  A
C1007      C1014   1.512       .  S
C1008      C1009   1.405       .  A
C1008      H1013   1.081       .  S
C1009      C1010   1.428       .  A
C1010      C1011   1.522       .  S
C1011      F1015   1.382       .  S
C1011      F1016   1.383       .  S
C1011      F1017   1.380       .  S
C1014      F1018   1.385       .  S
C1014      F1019   1.379       .  S
C1014      F1020   1.382       .  S
C1021      C1022   1.415       .  A
C1021      C1026   1.423       .  A
C1021      H1028   1.078       .  S
C1022      C1023   1.437       .  A
C1023      C1024   1.414       .  A
C1023      C1030   1.523       .  S
C1024      C1025   1.404       .  A
C1024      H1029   1.076       .  S
C1025      C1026   1.419       .  A
C1026      C1027   1.514       .  S
C1027      F1031   1.383       .  S
C1027      F1032   1.379       .  S
C1027      F1033   1.384       .  S
C1030      F1034   1.378       .  S
C1030      F1035   1.375       .  S
C1030      F1036   1.384       .  S
C1037      C1038   1.397       .  A
C1037      C1042   1.405       .  A
C1037      H1044   1.085       .  S
C1038      C1039   1.423       .  A
C1039      C1040   1.418       .  A
C1039      C1046   1.514       .  S
C1040      C1041   1.419       .  A
C1040      H1045   1.063       .  S
C1041      C1042   1.436       .  A
C1042      C1043   1.513       .  S
C1043      F1047   1.384       .  S
C1043      F1048   1.377       .  S
C1043      F1049   1.381       .  S
C1046      F1050   1.373       .  S
C1046      F1051   1.384       .  S
C1046      F1052   1.383       .  S
C1053      C1054   1.403       .  A
C1053      C1058   1.405       .  A
C1053      H1060   1.083       .  S
C1054      C1055   1.426       .  A
C1055      C1056   1.404       .  A
C1055      C1062   1.514       .  S
C1056      C1057   1.404       .  A
C1056      H1061   1.085       .  S
C1057      C1058   1.421       .  A
C1058      C1059   1.517       .  S
C1059      F1063   1.385       .  S
C1059      F1064   1.381       .  S
C1059      F1065   1.382       .  S
C1062      F1066   1.383       .  S
C1062      F1067   1.370       .  S
C1062      F1068   1.384       .  S
C1069      C1070   1.406       .  A
C1069      C1074   1.410       .  A
C1069      H1076   1.083       .  S
C1070      C1071   1.411       .  A
C1071      C1072   1.394       .  A
C1071      C1078   1.516       .  S
C1072      C1073   1.400       .  A
C1072      H1077   1.059       .  S
C1073      C1074   1.420       .  A
C1074      C1075   1.518       .  S
C1075      F1079   1.385       .  S
C1075      F1080   1.382       .  S
C1075      F1081   1.378       .  S
C1078      F1082   1.384       .  S
C1078      F1083   1.379       .  S
C1078      F1084   1.385       .  S
C1085      C1086   1.391       .  A
C1085      C1090   1.403       .  A
C1085      H1092   1.085       .  S
C1086      C1087   1.413       .  A
C1087      C1088   1.419       .  A
C1087      C1094   1.514       .  S
C1088      C1089   1.419       .  A
C1088      H1093   1.080       .  S
C1089      C1090   1.441       .  A
C1090      C1091   1.518       .  S
C1091      F1095   1.384       .  S
C1091      F1096   1.363       .  S
C1091      F1097   1.380       .  S
C1094      F1098   1.383       .  S
C1094      F1099   1.383       .  S
C1094      F1100   1.385       .  S
C1101      C1102   1.399       .  A
C1101      C1106   1.394       .  A
C1101      H1108   1.086       .  S
C1102      C1103   1.408       .  A
C1103      C1104   1.397       .  A
C1103      C1110   1.517       .  S
C1104      C1105   1.409       .  A
C1104      H1109   1.075       .  S
C1105      C1106   1.425       .  A
C1106      C1107   1.514       .  S
C1107      F1111   1.382       .  S
C1107      F1112   1.370       .  S
C1107      F1113   1.383       .  S
C1110      F1114   1.383       .  S
C1110      F1115   1.384       .  S
C1110      F1116   1.384       .  S
C1117      C1118   1.405       .  A
C1117      C1122   1.408       .  A
C1117      H1124   1.084       .  S
C1118      C1119   1.427       .  A
C1119      C1120   1.404       .  A
C1119      C1126   1.515       .  S
C1120      C1121   1.398       .  A
C1120      H1125   1.083       .  S
C1121      C1122   1.421       .  A
C1122      C1123   1.514       .  S
C1123      F1127   1.383       .  S
C1123      F1128   1.379       .  S
C1123      F1129   1.381       .  S
C1126      F1130   1.380       .  S
C1126      F1131   1.383       .  S
C1126      F1132   1.384       .  S
C1133      C1134   1.412       .  A
C1133      C1138   1.430       .  A
C1133      H1140   1.083       .  S
C1134      C1135   1.416       .  A
C1135      C1136   1.408       .  A
C1135      C1142   1.513       .  S
C1136      C1137   1.405       .  A
C1136      H1141   1.075       .  S
C1137      C1138   1.428       .  A
C1138      C1139   1.513       .  S
C1139      F1143   1.379       .  S
C1139      F1144   1.378       .  S
C1139      F1145   1.384       .  S
C1142      F1146   1.382       .  S
C1142      F1147   1.380       .  S
C1142      F1148   1.379       .  S
C1149      C1150   1.400       .  A
C1149      C1154   1.407       .  A
C1149      H1156   1.084       .  S
C1150      C1151   1.417       .  A
C1151      C1152   1.408       .  A
C1151      C1158   1.514   1_545  S
C1152      C1153   1.408       .  A
C1152      H1157   1.083       .  S
C1153      C1154   1.429       .  A
C1154      C1155   1.518       .  S
C1155      F1159   1.382       .  S
C1155      F1160   1.376       .  S
C1155      F1161   1.381       .  S
C1158      F1162   1.383       .  S
C1158      F1163   1.383       .  S
C1158      F1164   1.385       .  S
C1165      C1166   1.411       .  A
C1165      C1170   1.404       .  A
C1165      H1172   1.081       .  S
C1166      C1167   1.416       .  A
C1167      C1168   1.419       .  A
C1167      C1174   1.516       .  S
C1168      C1169   1.417       .  A
C1168      H1173   1.080       .  S
C1169      C1170   1.421       .  A
C1170      C1171   1.521       .  S
C1171      F1175   1.385       .  S
C1171      F1176   1.380       .  S
C1171      F1177   1.373       .  S
C1174      F1178   1.379       .  S
C1174      F1179   1.383       .  S
C1174      F1180   1.383       .  S
C1181      C1182   1.418       .  A
C1181      C1186   1.413       .  A
C1181      H1188   1.080       .  S
C1182      C1183   1.426       .  A
C1183      C1184   1.408       .  A
C1183      C1190   1.506   1_545  S
C1184      C1185   1.394       .  A
C1184      H1189   1.086   1_545  S
C1185      C1186   1.408       .  A
C1186      C1187   1.512       .  S
C1187      F1191   1.384       .  S
C1187      F1192   1.383       .  S
C1187      F1193   1.377       .  S
C1190      F1194   1.378       .  S
C1190      F1195   1.370       .  S
C1190      F1196   1.373       .  S
C1197      C1198   1.404       .  A
C1197      C1202   1.410       .  A
C1197      H1204   1.082       .  S
C1198      C1199   1.412       .  A
C1199      C1200   1.399       .  A
C1199      C1206   1.527       .  S
C1200      C1201   1.410       .  A
C1200      H1205   1.074       .  S
C1201      C1202   1.418       .  A
C1202      C1203   1.510       .  S
C1203      F1207   1.383       .  S
C1203      F1208   1.379       .  S
C1203      F1209   1.373       .  S
C1206      F1210   1.383       .  S
C1206      F1211   1.378       .  S
C1206      F1212   1.382       .  S
C1213      C1214   1.408       .  A
C1213      C1218   1.409       .  A
C1213      H1220   1.071       .  S
C1214      C1215   1.424       .  A
C1215      C1216   1.403       .  A
C1215      C1222   1.513       .  S
C1216      C1217   1.402       .  A
C1216      H1221   1.084       .  S
C1217      C1218   1.419       .  A
C1218      C1219   1.521       .  S
C1219      F1223   1.385       .  S
C1219      F1224   1.384       .  S
C1219      F1225   1.383       .  S
C1222      F1226   1.380       .  S
C1222      F1227   1.374       .  S
C1222      F1228   1.382       .  S
C1229      C1230   1.402       .  A
C1229      C1234   1.404       .  A
C1229      H1236   1.084       .  S
C1230      C1231   1.418       .  A
C1231      C1232   1.402       .  A
C1231      C1238   1.512       .  S
C1232      C1233   1.403       .  A
C1232      H1237   1.084       .  S
C1233      C1234   1.423       .  A
C1234      C1235   1.513       .  S
C1235      F1239   1.383       .  S
C1235      F1240   1.376       .  S
C1235      F1241   1.382       .  S
C1238      F1242   1.384       .  S
C1238      F1243   1.376       .  S
C1238      F1244   1.382       .  S
C1245      C1246   1.408       .  A
C1245      C1250   1.405       .  A
C1245      H1252   1.079       .  S
C1246      C1247   1.418       .  A
C1247      C1248   1.394       .  A
C1247      C1254   1.523       .  S
C1248      C1249   1.406       .  A
C1248      H1253   1.079       .  S
C1249      C1250   1.418       .  A
C1250      C1251   1.520       .  S
C1251      F1255   1.383       .  S
C1251      F1256   1.379       .  S
C1251      F1257   1.382       .  S
C1254      F1258   1.381       .  S
C1254      F1259   1.383       .  S
C1254      F1260   1.383       .  S
C1261      C1262   1.397       .  A
C1261      C1266   1.409       .  A
C1261      H1268   1.084       .  S
C1262      C1263   1.423       .  A
C1263      C1264   1.404       .  A
C1263      C1270   1.517       .  S
C1264      C1265   1.400       .  A
C1264      H1269   1.084       .  S
C1265      C1266   1.432       .  A
C1266      C1267   1.513       .  S
C1267      F1271   1.380       .  S
C1267      F1272   1.379       .  S
C1267      F1273   1.379       .  S
C1270      F1274   1.383       .  S
C1270      F1275   1.384       .  S
C1270      F1276   1.384       .  S
C1277      C1278   1.398       .  A
C1277      C1282   1.412       .  A
C1277      H1284   1.085       .  S
C1278      C1279   1.414       .  A
C1279      C1280   1.410       .  A
C1279      C1286   1.511   1_455  S
C1280      C1281   1.405       .  A
C1280      H1285   1.081       .  S
C1281      C1282   1.438       .  A
C1282      C1283   1.517       .  S
C1283      F1287   1.382       .  S
C1283      F1288   1.374       .  S
C1283      F1289   1.383       .  S
C1286      F1290   1.382       .  S
C1286      F1291   1.381       .  S
C1286      F1292   1.385       .  S
C1293      C1294   1.411       .  A
C1293      C1298   1.408       .  A
C1293      H1300   1.085       .  S
C1294      C1295   1.415       .  A
C1295      C1296   1.411       .  A
C1295      C1302   1.518       .  S
C1296      C1297   1.416       .  A
C1296      H1301   1.080       .  S
C1297      C1298   1.423       .  A
C1298      C1299   1.517       .  S
C1299      F1303   1.383       .  S
C1299      F1304   1.383       .  S
C1299      F1305   1.370       .  S
C1302      F1306   1.376       .  S
C1302      F1307   1.383       .  S
C1302      F1308   1.384       .  S
C1309      C1310   1.400       .  A
C1309      C1314   1.414       .  A
C1309      H1316   1.085   1_455  S
C1310      C1311   1.418       .  A
C1311      C1312   1.411       .  A
C1311      C1318   1.515       .  S
C1312      C1313   1.407       .  A
C1312      H1317   1.082       .  S
C1313      C1314   1.425       .  A
C1314      C1315   1.511       .  S
C1315      F1319   1.370   1_455  S
C1315      F1320   1.384   1_455  S
C1315      F1321   1.380       .  S
C1318      F1322   1.383       .  S
C1318      F1323   1.379       .  S
C1318      F1324   1.384       .  S
C1325      C1326   1.396       .  A
C1325      C1330   1.400       .  A
C1325      H1332   1.085       .  S
C1326      C1327   1.405       .  A
C1327      C1328   1.397       .  A
C1327      C1334   1.517       .  S
C1328      C1329   1.403       .  A
C1328      H1333   1.073       .  S
C1329      C1330   1.427       .  A
C1330      C1331   1.511       .  S
C1331      F1335   1.381       .  S
C1331      F1336   1.375       .  S
C1331      F1337   1.384       .  S
C1334      F1338   1.374       .  S
C1334      F1339   1.383       .  S
C1334      F1340   1.383       .  S
C1341      C1342   1.402       .  A
C1341      C1346   1.402       .  A
C1341      H1348   1.082       .  S
C1342      C1343   1.415       .  A
C1343      C1344   1.402       .  A
C1343      C1350   1.519       .  S
C1344      C1345   1.403       .  A
C1344      H1349   1.068       .  S
C1345      C1346   1.425       .  A
C1346      C1347   1.514       .  S
C1347      F1351   1.383       .  S
C1347      F1352   1.370       .  S
C1347      F1353   1.381       .  S
C1350      F1354   1.382       .  S
C1350      F1355   1.383       .  S
C1350      F1356   1.383       .  S
C1357      C1358   1.398       .  A
C1357      C1362   1.390       .  A
C1357      H1364   1.085       .  S
C1358      C1359   1.411       .  A
C1359      C1360   1.391       .  A
C1359      C1366   1.502       .  S
C1360      C1361   1.397       .  A
C1360      H1365   1.083       .  S
C1361      C1362   1.428       .  A
C1362      C1363   1.522       .  S
C1363      F1367   1.377       .  S
C1363      F1368   1.375       .  S
C1363      F1369   1.376       .  S
C1366      F1370   1.378       .  S
C1366      F1371   1.384       .  S
C1366      F1372   1.386       .  S
C1373      C1374   1.410       .  A
C1373      C1378   1.399       .  A
C1373      H1380   1.081       .  S
C1374      C1375   1.413       .  A
C1375      C1376   1.398       .  A
C1375      C1382   1.520       .  S
C1376      C1377   1.413       .  A
C1376      H1381   1.082       .  S
C1377      C1378   1.415       .  A
C1378      C1379   1.525       .  S
C1379      F1383   1.384       .  S
C1379      F1384   1.377       .  S
C1379      F1385   1.371       .  S
C1382      F1386   1.384       .  S
C1382      F1387   1.382       .  S
C1382      F1388   1.385       .  S
C1389      C1390   1.388       .  A
C1389      C1394   1.404       .  A
C1389      H1396   1.083       .  S
C1390      C1391   1.418       .  A
C1391      C1392   1.421       .  A
C1391      C1398   1.515       .  S
C1392      C1393   1.413       .  A
C1392      H1397   1.079       .  S
C1393      C1394   1.423       .  A
C1394      C1395   1.488       .  S
C1395      F1399   1.386   1_545  S
C1395      F1400   1.365   1_545  S
C1395      F1401   1.363       .  S
C1398      F1402   1.380       .  S
C1398      F1403   1.383       .  S
C1398      F1404   1.384       .  S
C1405      C1406   1.404       .  A
C1405      C1410   1.409       .  A
C1405      H1412   1.081       .  S
C1406      C1407   1.427       .  A
C1407      C1408   1.411       .  A
C1407      C1414   1.513       .  S
C1408      C1409   1.402       .  A
C1408      H1413   1.085       .  S
C1409      C1410   1.416       .  A
C1410      C1411   1.515       .  S
C1411      F1415   1.378       .  S
C1411      F1416   1.382       .  S
C1411      F1417   1.381       .  S
C1414      F1418   1.382       .  S
C1414      F1419   1.376       .  S
C1414      F1420   1.383       .  S
C1421      C1422   1.387       .  A
C1421      C1426   1.392       .  A
C1421      H1428   1.083       .  S
C1422      C1423   1.431       .  A
C1423      C1424   1.420       .  A
C1423      C1430   1.521       .  S
C1424      C1425   1.408       .  A
C1424      H1429   1.084       .  S
C1425      C1426   1.427       .  A
C1426      C1427   1.509       .  S
C1427      F1431   1.386       .  S
C1427      F1432   1.380       .  S
C1427      F1433   1.383       .  S
C1430      F1434   1.379       .  S
C1430      F1435   1.381       .  S
C1430      F1436   1.380   1_545  S
C1437      C1438   1.400       .  A
C1437      C1442   1.409       .  A
C1437      H1444   1.085       .  S
C1438      C1439   1.417       .  A
C1439      C1440   1.417       .  A
C1439      C1446   1.515       .  S
C1440      C1441   1.414       .  A
C1440      H1445   1.082       .  S
C1441      C1442   1.417       .  A
C1442      C1443   1.508       .  S
C1443      F1447   1.376       .  S
C1443      F1448   1.367       .  S
C1443      F1449   1.377       .  S
C1446      F1450   1.383       .  S
C1446      F1451   1.383       .  S
C1446      F1452   1.384       .  S
C1453      C1454   1.397       .  A
C1453      C1458   1.385       .  A
C1453      H1460   1.086       .  S
C1454      C1455   1.415       .  A
C1455      C1456   1.405       .  A
C1455      C1462   1.518       .  S
C1456      C1457   1.411       .  A
C1456      H1461   1.083       .  S
C1457      C1458   1.431       .  A
C1458      C1459   1.522       .  S
C1459      F1463   1.385       .  S
C1459      F1464   1.373       .  S
C1459      F1465   1.381       .  S
C1462      F1466   1.383       .  S
C1462      F1467   1.383       .  S
C1462      F1468   1.385       .  S
C1469      C1470   1.404       .  A
C1469      C1474   1.406       .  A
C1469      H1476   1.082       .  S
C1470      C1471   1.416       .  A
C1471      C1472   1.406       .  A
C1471      C1478   1.518       .  S
C1472      C1473   1.410       .  A
C1472      H1477   1.082       .  S
C1473      C1474   1.419       .  A
C1474      C1475   1.518       .  S
C1475      F1479   1.374       .  S
C1475      F1480   1.383       .  S
C1475      F1481   1.374       .  S
C1478      F1482   1.383       .  S
C1478      F1483   1.383       .  S
C1478      F1484   1.384       .  S
C1485      C1486   1.399       .  A
C1485      C1490   1.402       .  A
C1485      H1492   1.077       .  S
C1486      C1487   1.433       .  A
C1487      C1488   1.413       .  A
C1487      C1494   1.523       .  S
C1488      C1489   1.406       .  A
C1488      H1493   1.084       .  S
C1489      C1490   1.420       .  A
C1490      C1491   1.526       .  S
C1491      F1495   1.381       .  S
C1491      F1496   1.379       .  S
C1491      F1497   1.383       .  S
C1494      F1498   1.380       .  S
C1494      F1499   1.381       .  S
C1494      F1500   1.384       .  S
C1501      C1502   1.404       .  A
C1501      C1506   1.419       .  A
C1501      H1508   1.084       .  S
C1502      C1503   1.422       .  A
C1503      C1504   1.421       .  A
C1503      C1510   1.516       .  S
C1504      C1505   1.413       .  A
C1504      H1509   1.076       .  S
C1505      C1506   1.423       .  A
C1506      C1507   1.521       .  S
C1507      F1511   1.386       .  S
C1507      F1512   1.364       .  S
C1507      F1513   1.383       .  S
C1510      F1514   1.383       .  S
C1510      F1515   1.381       .  S
C1510      F1516   1.381       .  S
C1517      C1518   1.412       .  A
C1517      C1522   1.397       .  A
C1517      H1524   1.084       .  S
C1518      C1519   1.416       .  A
C1519      C1520   1.407       .  A
C1519      C1526   1.518       .  S
C1520      C1521   1.415       .  A
C1520      H1525   1.082       .  S
C1521      C1522   1.417       .  A
C1522      C1523   1.525       .  S
C1523      F1527   1.384       .  S
C1523      F1528   1.378       .  S
C1523      F1529   1.383       .  S
C1526      F1530   1.383       .  S
C1526      F1531   1.384   1_545  S
C1526      F1532   1.385       .  S
C1533      C1534   1.405   1_565  A
C1533      C1538   1.406   1_565  A
C1533      H1540   1.084       .  S
C1534      C1535   1.419       .  A
C1535      C1536   1.427       .  A
C1535      C1542   1.511       .  S
C1536      C1537   1.416       .  A
C1536      H1541   1.081       .  S
C1537      C1538   1.410       .  A
C1538      C1539   1.510   1_545  S
C1539      F1543   1.379       .  S
C1539      F1544   1.375       .  S
C1539      F1545   1.376       .  S
C1542      F1546   1.384       .  S
C1542      F1547   1.383       .  S
C1542      F1548   1.378       .  S
C1549      C1550   1.409       .  A
C1549      C1554   1.428       .  A
C1549      H1556   1.083       .  S
C1550      C1551   1.413       .  A
C1551      C1552   1.394       .  A
C1551      C1558   1.527   1_554  S
C1552      C1553   1.423       .  A
C1552      H1557   1.070       .  S
C1553      C1554   1.442       .  A
C1554      C1555   1.511       .  S
C1555      F1559   1.386       .  S
C1555      F1560   1.375       .  S
C1555      F1561   1.379       .  S
C1558      F1562   1.385   1_556  S
C1558      F1563   1.378       .  S
C1558      F1564   1.383       .  S
C1565      C1566   1.399       .  A
C1565      C1570   1.409       .  A
C1565      H1572   1.085       .  S
C1566      C1567   1.416       .  A
C1567      C1568   1.403       .  A
C1567      C1574   1.522       .  S
C1568      C1569   1.409       .  A
C1568      H1573   1.075       .  S
C1569      C1570   1.434       .  A
C1570      C1571   1.515       .  S
C1571      F1575   1.379       .  S
C1571      F1576   1.384       .  S
C1571      F1577   1.369       .  S
C1574      F1578   1.383       .  S
C1574      F1579   1.382       .  S
C1574      F1580   1.384       .  S
C1581      C1582   1.408       .  A
C1581      C1586   1.405       .  A
C1581      H1588   1.077       .  S
C1582      C1583   1.430       .  A
C1583      C1584   1.406       .  A
C1583      C1590   1.517       .  S
C1584      C1585   1.400       .  A
C1584      H1589   1.085       .  S
C1585      C1586   1.411       .  A
C1586      C1587   1.516       .  S
C1587      F1591   1.382       .  S
C1587      F1592   1.381       .  S
C1587      F1593   1.377       .  S
C1590      F1594   1.380       .  S
C1590      F1595   1.380       .  S
C1590      F1596   1.384       .  S
C1597      C1598   1.404       .  A
C1597      C1602   1.397       .  A
C1597      H1604   1.084       .  S
C1598      C1599   1.420       .  A
C1599      C1600   1.395       .  A
C1599      C1606   1.528       .  S
C1600      C1601   1.390       .  A
C1600      H1605   1.075       .  S
C1601      C1602   1.421       .  A
C1602      C1603   1.518       .  S
C1603      F1607   1.383       .  S
C1603      F1608   1.384       .  S
C1603      F1609   1.377       .  S
C1606      F1610   1.384       .  S
C1606      F1611   1.378       .  S
C1606      F1612   1.383       .  S
C1613      C1614   1.397       .  A
C1613      C1618   1.403       .  A
C1613      H1620   1.079       .  S
C1614      C1615   1.420       .  A
C1615      C1616   1.411       .  A
C1615      C1622   1.518       .  S
C1616      C1617   1.410       .  A
C1616      H1621   1.081       .  S
C1617      C1618   1.416       .  A
C1618      C1619   1.516       .  S
C1619      F1623   1.367       .  S
C1619      F1624   1.381       .  S
C1619      F1625   1.378       .  S
C1622      F1626   1.383       .  S
C1622      F1627   1.382       .  S
C1622      F1628   1.385       .  S
C1629      C1630   1.395       .  A
C1629      C1634   1.401       .  A
C1629      H1636   1.085       .  S
C1630      C1631   1.411       .  A
C1631      C1632   1.394       .  A
C1631      C1638   1.505       .  S
C1632      C1633   1.399       .  A
C1632      H1637   1.084       .  S
C1633      C1634   1.427       .  A
C1634      C1635   1.511       .  S
C1635      F1639   1.381       .  S
C1635      F1640   1.374       .  S
C1635      F1641   1.385       .  S
C1638      F1642   1.377       .  S
C1638      F1643   1.384       .  S
C1638      F1644   1.382       .  S
C1645      C1646   1.404       .  A
C1645      C1650   1.409       .  A
C1645      H1652   1.080       .  S
C1646      C1647   1.417       .  A
C1647      C1648   1.402       .  A
C1647      C1654   1.526       .  S
C1648      C1649   1.405       .  A
C1648      H1653   1.069       .  S
C1649      C1650   1.419       .  A
C1650      C1651   1.513       .  S
C1651      F1655   1.384       .  S
C1651      F1656   1.368       .  S
C1651      F1657   1.383       .  S
C1654      F1658   1.382       .  S
C1654      F1659   1.383       .  S
C1654      F1660   1.384       .  S
C1661      C1662   1.403       .  A
C1661      C1666   1.404       .  A
C1661      H1668   1.078       .  S
C1662      C1663   1.422       .  A
C1663      C1664   1.415       .  A
C1663      C1670   1.514       .  S
C1664      C1665   1.407       .  A
C1664      H1669   1.085       .  S
C1665      C1666   1.416       .  A
C1666      C1667   1.510       .  S
C1667      F1671   1.386       .  S
C1667      F1672   1.382       .  S
C1667      F1673   1.384       .  S
C1670      F1674   1.383       .  S
C1670      F1675   1.378       .  S
C1670      F1676   1.383       .  S
C1677      C1678   1.413       .  A
C1677      C1682   1.401       .  A
C1677      H1684   1.082       .  S
C1678      C1679   1.415       .  A
C1679      C1680   1.403       .  A
C1679      C1686   1.518       .  S
C1680      C1681   1.410       .  A
C1680      H1685   1.084       .  S
C1681      C1682   1.412       .  A
C1682      C1683   1.518       .  S
C1683      F1687   1.384       .  S
C1683      F1688   1.381       .  S
C1683      F1689   1.382       .  S
C1686      F1690   1.382       .  S
C1686      F1691   1.376       .  S
C1686      F1692   1.383       .  S
C1693      C1694   1.426       .  A
C1693      C1698   1.422       .  A
C1693      H1700   1.065       .  S
C1694      C1695   1.453       .  A
C1695      C1696   1.401       .  A
C1695      C1702   1.532       .  S
C1696      C1697   1.388       .  A
C1696      H1701   1.074       .  S
C1697      C1698   1.419       .  A
C1698      C1699   1.516       .  S
C1699      F1703   1.383       .  S
C1699      F1704   1.381       .  S
C1699      F1705   1.384       .  S
C1702      F1706   1.372       .  S
C1702      F1707   1.375       .  S
C1702      F1708   1.387       .  S
C1709      C1710   1.399       .  A
C1709      C1714   1.424       .  A
C1709      H1716   1.075       .  S
C1710      C1711   1.410       .  A
C1711      C1712   1.413       .  A
C1711      C1718   1.518       .  S
C1712      C1713   1.431       .  A
C1712      H1717   1.083       .  S
C1713      C1714   1.453       .  A
C1714      C1715   1.524       .  S
C1715      F1719   1.385       .  S
C1715      F1720   1.372       .  S
C1715      F1721   1.373       .  S
C1718      F1722   1.383       .  S
C1718      F1723   1.381       .  S
C1718      F1724   1.384       .  S
C1725      C1726   1.417       .  A
C1725      C1730   1.418       .  A
C1725      H1732   1.079       .  S
C1726      C1727   1.430       .  A
C1727      C1728   1.403       .  A
C1727      C1734   1.508       .  S
C1728      C1729   1.395       .  A
C1728      H1733   1.083       .  S
C1729      C1730   1.411       .  A
C1730      C1731   1.519       .  S
C1731      F1735   1.382       .  S
C1731      F1736   1.374       .  S
C1731      F1737   1.381       .  S
C1734      F1738   1.377       .  S
C1734      F1739   1.371       .  S
C1734      F1740   1.384       .  S
C1741      C1742   1.406       .  A
C1741      C1746   1.413       .  A
C1741      H1748   1.077       .  S
C1742      C1743   1.429       .  A
C1743      C1744   1.421   1_545  A
C1743      C1750   1.511   1_545  S
C1744      C1745   1.414       .  A
C1744      H1749   1.080       .  S
C1745      C1746   1.430   1_565  A
C1746      C1747   1.505       .  S
C1747      F1751   1.386       .  S
C1747      F1752   1.367   1_545  S
C1747      F1753   1.381       .  S
C1750      F1754   1.383       .  S
C1750      F1755   1.372   1_565  S
C1750      F1756   1.384       .  S
C1757      C1758   1.417       .  A
C1757      C1762   1.405       .  A
C1757      H1764   1.076       .  S
C1758      C1759   1.438       .  A
C1759      C1760   1.406       .  A
C1759      C1766   1.524       .  S
C1760      C1761   1.394       .  A
C1760      H1765   1.082       .  S
C1761      C1762   1.405       .  A
C1762      C1763   1.518       .  S
C1763      F1767   1.385       .  S
C1763      F1768   1.383       .  S
C1763      F1769   1.383       .  S
C1766      F1770   1.374   1_556  S
C1766      F1771   1.369       .  S
C1766      F1772   1.380       .  S
C1773      C1774   1.411       .  A
C1773      C1778   1.400       .  A
C1773      H1780   1.084       .  S
C1774      C1775   1.418       .  A
C1775      C1776   1.401       .  A
C1775      C1782   1.520       .  S
C1776      C1777   1.407       .  A
C1776      H1781   1.081       .  S
C1777      C1778   1.417       .  A
C1778      C1779   1.522       .  S
C1779      F1783   1.382       .  S
C1779      F1784   1.380       .  S
C1779      F1785   1.383       .  S
C1782      F1786   1.383       .  S
C1782      F1787   1.383       .  S
C1782      F1788   1.385       .  S
C1789      C1790   1.401       .  A
C1789      C1794   1.413       .  A
C1789      H1796   1.084       .  S
C1790      C1791   1.413       .  A
C1791      C1792   1.399       .  A
C1791      C1798   1.517       .  S
C1792      C1793   1.397       .  A
C1792      H1797   1.075       .  S
C1793      C1794   1.432       .  A
C1794      C1795   1.519       .  S
C1795      F1799   1.383       .  S
C1795      F1800   1.382       .  S
C1795      F1801   1.383       .  S
C1798      F1802   1.383       .  S
C1798      F1803   1.380       .  S
C1798      F1804   1.359       .  S
C1805      C1806   1.402       .  A
C1805      C1810   1.408       .  A
C1805      H1812   1.084       .  S
C1806      C1807   1.421       .  A
C1807      C1808   1.412       .  A
C1807      C1814   1.520       .  S
C1808      C1809   1.417       .  A
C1808      H1813   1.081       .  S
C1809      C1810   1.418       .  A
C1810      C1811   1.506       .  S
C1811      F1815   1.384       .  S
C1811      F1816   1.381       .  S
C1811      F1817   1.378       .  S
C1814      F1818   1.383       .  S
C1814      F1819   1.382       .  S
C1814      F1820   1.380       .  S
C1821      C1822   1.394       .  A
C1821      C1826   1.406       .  A
C1821      H1828   1.083       .  S
C1822      C1823   1.414       .  A
C1823      C1824   1.412       .  A
C1823      C1830   1.516       .  S
C1824      C1825   1.412       .  A
C1824      H1829   1.082       .  S
C1825      C1826   1.433       .  A
C1826      C1827   1.518       .  S
C1827      F1831   1.385       .  S
C1827      F1832   1.364       .  S
C1827      F1833   1.368       .  S
C1830      F1834   1.382       .  S
C1830      F1835   1.383       .  S
C1830      F1836   1.384       .  S
C1837      C1838   1.401       .  A
C1837      C1842   1.411       .  A
C1837      H1844   1.085   1_545  S
C1838      C1839   1.413       .  A
C1839      C1840   1.406       .  A
C1839      C1846   1.519       .  S
C1840      C1841   1.407       .  A
C1840      H1845   1.073       .  S
C1841      C1842   1.427       .  A
C1842      C1843   1.519       .  S
C1843      F1847   1.383       .  S
C1843      F1848   1.372   1_545  S
C1843      F1849   1.374       .  S
C1846      F1850   1.382       .  S
C1846      F1851   1.383       .  S
C1846      F1852   1.385       .  S
C1853      C1854   1.405       .  A
C1853      C1858   1.408       .  A
C1853      H1860   1.085       .  S
C1854      C1855   1.418       .  A
C1855      C1856   1.404       .  A
C1855      C1862   1.522       .  S
C1856      C1857   1.406       .  A
C1856      H1861   1.081       .  S
C1857      C1858   1.422       .  A
C1858      C1859   1.517       .  S
C1859      F1863   1.383       .  S
C1859      F1864   1.381       .  S
C1859      F1865   1.384       .  S
C1862      F1866   1.381       .  S
C1862      F1867   1.381       .  S
C1862      F1868   1.382       .  S
C1869      C1870   1.401       .  A
C1869      C1874   1.418       .  A
C1869      H1876   1.082   1_545  S
C1870      C1871   1.422       .  A
C1871      C1872   1.409       .  A
C1871      C1878   1.524       .  S
C1872      C1873   1.411       .  A
C1872      H1877   1.078       .  S
C1873      C1874   1.430       .  A
C1874      C1875   1.509   1_545  S
C1875      F1879   1.376       .  S
C1875      F1880   1.383       .  S
C1875      F1881   1.370   1_565  S
C1878      F1882   1.384       .  S
C1878      F1883   1.383       .  S
C1878      F1884   1.385       .  S
C1885      C1886   1.394       .  A
C1885      C1890   1.402       .  A
C1885      H1892   1.085       .  S
C1886      C1887   1.421       .  A
C1887      C1888   1.416       .  A
C1887      C1894   1.517       .  S
C1888      C1889   1.408       .  A
C1888      H1893   1.083       .  S
C1889      C1890   1.430       .  A
C1890      C1891   1.507       .  S
C1891      F1895   1.379       .  S
C1891      F1896   1.380       .  S
C1891      F1897   1.379       .  S
C1894      F1898   1.384       .  S
C1894      F1899   1.382       .  S
C1894      F1900   1.385       .  S
C1901      C1902   1.392       .  A
C1901      C1906   1.380       .  A
C1901      H1908   1.084       .  S
C1902      C1903   1.415       .  A
C1903      C1904   1.413       .  A
C1903      C1910   1.511       .  S
C1904      C1905   1.416       .  A
C1904      H1909   1.082       .  S
C1905      C1906   1.410       .  A
C1906      C1907   1.492       .  S
C1907      F1911   1.384       .  S
C1907      F1912   1.361       .  S
C1907      F1913   1.383       .  S
C1910      F1914   1.381       .  S
C1910      F1915   1.382       .  S
C1910      F1916   1.384       .  S
C1917      C1918   1.407       .  A
C1917      C1922   1.400       .  A
C1917      H1924   1.070       .  S
C1918      C1919   1.420       .  A
C1919      C1920   1.406       .  A
C1919      C1926   1.509       .  S
C1920      C1921   1.402       .  A
C1920      H1925   1.083       .  S
C1921      C1922   1.413       .  A
C1922      C1923   1.521       .  S
C1923      F1927   1.383       .  S
C1923      F1928   1.384       .  S
C1923      F1929   1.382       .  S
C1926      F1930   1.385       .  S
C1926      F1931   1.375       .  S
C1926      F1932   1.376       .  S
C1933      C1934   1.418       .  A
C1933      C1938   1.417       .  A
C1933      H1940   1.074       .  S
C1934      C1935   1.429       .  A
C1935      C1936   1.401       .  A
C1935      C1942   1.487       .  S
C1936      C1937   1.382       .  A
C1936      H1941   1.083       .  S
C1937      C1938   1.411       .  A
C1938      C1939   1.517       .  S
C1939      F1943   1.381       .  S
C1939      F1944   1.384       .  S
C1939      F1945   1.381       .  S
C1942      F1946   1.380       .  S
C1942      F1947   1.369       .  S
C1942      F1948   1.384       .  S
C1949      C1950   1.398       .  A
C1949      C1954   1.408       .  A
C1949      H1956   1.070       .  S
C1950      C1951   1.411       .  A
C1951      C1952   1.426       .  A
C1951      C1958   1.523       .  S
C1952      C1953   1.421       .  A
C1952      H1957   1.082       .  S
C1953      C1954   1.424       .  A
C1954      C1955   1.521       .  S
C1955      F1959   1.384       .  S
C1955      F1960   1.383       .  S
C1955      F1961   1.383       .  S
C1958      F1962   1.379       .  S
C1958      F1963   1.371       .  S
C1958      F1964   1.376       .  S
C1965      C1966   1.406       .  A
C1965      C1970   1.413       .  A
C1965      H1972   1.084       .  S
C1966      C1967   1.415       .  A
C1967      C1968   1.403       .  A
C1967      C1974   1.516       .  S
C1968      C1969   1.408       .  A
C1968      H1973   1.083       .  S
C1969      C1970   1.430       .  A
C1970      C1971   1.522       .  S
C1971      F1975   1.370   1_556  S
C1971      F1976   1.372       .  S
C1971      F1977   1.375       .  S
C1974      F1978   1.382       .  S
C1974      F1979   1.382       .  S
C1974      F1980   1.380       .  S
C1981      C1982   1.396       .  A
C1981      C1986   1.387       .  A
C1981      H1988   1.084       .  S
C1982      C1983   1.423       .  A
C1983      C1984   1.439       .  A
C1983      C1990   1.512       .  S
C1984      C1985   1.427       .  A
C1984      H1989   1.077       .  S
C1985      C1986   1.409       .  A
C1986      C1987   1.494       .  S
C1987      F1991   1.385       .  S
C1987      F1992   1.377       .  S
C1987      F1993   1.373       .  S
C1990      F1994   1.383       .  S
C1990      F1995   1.380       .  S
C1990      F1996   1.384       .  S
C1997      C1998   1.398       .  A
C1997      C2002   1.411       .  A
C1997      H2004   1.084       .  S
C1998      C1999   1.423       .  A
C1999      C2000   1.401       .  A
C1999      C2006   1.520       .  S
C2000      C2001   1.401       .  A
C2000      H2005   1.078       .  S
C2001      C2002   1.428       .  A
C2002      C2003   1.510       .  S
C2003      F2007   1.383       .  S
C2003      F2008   1.379       .  S
C2003      F2009   1.381       .  S
C2006      F2010   1.383       .  S
C2006      F2011   1.378       .  S
C2006      F2012   1.377       .  S
C2013      C2014   1.400       .  A
C2013      C2018   1.407       .  A
C2013      H2020   1.083       .  S
C2014      C2015   1.417       .  A
C2015      C2016   1.419       .  A
C2015      C2022   1.516       .  S
C2016      C2017   1.413       .  A
C2016      H2021   1.077       .  S
C2017      C2018   1.425       .  A
C2018      C2019   1.512       .  S
C2019      F2023   1.380       .  S
C2019      F2024   1.376       .  S
C2019      F2025   1.373       .  S
C2022      F2026   1.383       .  S
C2022      F2027   1.383       .  S
C2022      F2028   1.384       .  S
C2029      C2030   1.403       .  A
C2029      C2034   1.393       .  A
C2029      H2036   1.070       .  S
C2030      C2031   1.429       .  A
C2031      C2032   1.400       .  A
C2031      C2038   1.514       .  S
C2032      C2033   1.397       .  A
C2032      H2037   1.085       .  S
C2033      C2034   1.408       .  A
C2034      C2035   1.513       .  S
C2035      F2039   1.382       .  S
C2035      F2040   1.384       .  S
C2035      F2041   1.378       .  S
C2038      F2042   1.367       .  S
C2038      F2043   1.383       .  S
C2038      F2044   1.383       .  S
C2045      C2046   1.405       .  A
C2045      C2050   1.402       .  A
C2045      H2052   1.084       .  S
C2046      C2047   1.426       .  A
C2047      C2048   1.404       .  A
C2047      C2054   1.522       .  S
C2048      C2049   1.399       .  A
C2048      H2053   1.080       .  S
C2049      C2050   1.420       .  A
C2050      C2051   1.517       .  S
C2051      F2055   1.382       .  S
C2051      F2056   1.380       .  S
C2051      F2057   1.383       .  S
C2054      F2058   1.381       .  S
C2054      F2059   1.380       .  S
C2054      F2060   1.383       .  S
C2061      C2062   1.390       .  A
C2061      C2066   1.388       .  A
C2061      H2068   1.084       .  S
C2062      C2063   1.405       .  A
C2063      C2064   1.395       .  A
C2063      C2070   1.519       .  S
C2064      C2065   1.413       .  A
C2064      H2069   1.078       .  S
C2065      C2066   1.421       .  A
C2066      C2067   1.503       .  S
C2067      F2071   1.377       .  S
C2067      F2072   1.386       .  S
C2067      F2073   1.381       .  S
C2070      F2074   1.385       .  S
C2070      F2075   1.382       .  S
C2070      F2076   1.383       .  S
C2077      C2078   1.405       .  A
C2077      C2082   1.405       .  A
C2077      H2084   1.084       .  S
C2078      C2079   1.421       .  A
C2079      C2080   1.394       .  A
C2079      C2086   1.520       .  S
C2080      C2081   1.401       .  A
C2080      H2085   1.084       .  S
C2081      C2082   1.418       .  A
C2082      C2083   1.514       .  S
C2083      F2087   1.384       .  S
C2083      F2088   1.381       .  S
C2083      F2089   1.382       .  S
C2086      F2090   1.383       .  S
C2086      F2091   1.382       .  S
C2086      F2092   1.385       .  S
C2093      C2094   1.408       .  A
C2093      C2098   1.410       .  A
C2093      H2100   1.085       .  S
C2094      C2095   1.411       .  A
C2095      C2096   1.410       .  A
C2095      C2102   1.518       .  S
C2096      C2097   1.422       .  A
C2096      H2101   1.070       .  S
C2097      C2098   1.423       .  A
C2098      C2099   1.513       .  S
C2099      F2103   1.383       .  S
C2099      F2104   1.378       .  S
C2099      F2105   1.382       .  S
C2102      F2106   1.383       .  S
C2102      F2107   1.383       .  S
C2102      F2108   1.384       .  S
C2109      C2110   1.402       .  A
C2109      C2114   1.414       .  A
C2109      H2116   1.085       .  S
C2110      C2111   1.413       .  A
C2111      C2112   1.409       .  A
C2111      C2118   1.514   1_455  S
C2112      C2113   1.401       .  A
C2112      H2117   1.078       .  S
C2113      C2114   1.431       .  A
C2114      C2115   1.518       .  S
C2115      F2119   1.383       .  S
C2115      F2120   1.378       .  S
C2115      F2121   1.383       .  S
C2118      F2122   1.382       .  S
C2118      F2123   1.382       .  S
C2118      F2124   1.377       .  S
C2125      C2126   1.414       .  A
C2125      C2130   1.415       .  A
C2125      H2132   1.080       .  S
C2126      C2127   1.409       .  A
C2127      C2128   1.396       .  A
C2127      C2134   1.485       .  S
C2128      C2129   1.387       .  A
C2128      H2133   1.084       .  S
C2129      C2130   1.414       .  A
C2130      C2131   1.514       .  S
C2131      F2135   1.384       .  S
C2131      F2136   1.383       .  S
C2131      F2137   1.383       .  S
C2134      F2138   1.374       .  S
C2134      F2139   1.374       .  S
C2134      F2140   1.384       .  S
C2141      C2142   1.423       .  A
C2141      C2146   1.409       .  A
C2141      H2148   1.076       .  S
C2142      C2143   1.432       .  A
C2143      C2144   1.432       .  A
C2143      C2150   1.512       .  S
C2144      C2145   1.420   1_455  A
C2144      H2149   1.081       .  S
C2145      C2146   1.417   1_655  A
C2146      C2147   1.513   1_455  S
C2147      F2151   1.385       .  S
C2147      F2152   1.380   1_655  S
C2147      F2153   1.371       .  S
C2150      F2154   1.379       .  S
C2150      F2155   1.376       .  S
C2150      F2156   1.381       .  S
C2157      C2158   1.404       .  A
C2157      C2162   1.404       .  A
C2157      H2164   1.081       .  S
C2158      C2159   1.439       .  A
C2159      C2160   1.420       .  A
C2159      C2166   1.512       .  S
C2160      C2161   1.402       .  A
C2160      H2165   1.085       .  S
C2161      C2162   1.429       .  A
C2162      C2163   1.522       .  S
C2163      F2167   1.383       .  S
C2163      F2168   1.378       .  S
C2163      F2169   1.373   1_556  S
C2166      F2170   1.376       .  S
C2166      F2171   1.378       .  S
C2166      F2172   1.386       .  S
C2173      C2174   1.409       .  A
C2173      C2178   1.404       .  A
C2173      H2180   1.084       .  S
C2174      C2175   1.433       .  A
C2175      C2176   1.423       .  A
C2175      C2182   1.519       .  S
C2176      C2177   1.417       .  A
C2176      H2181   1.072       .  S
C2177      C2178   1.407       .  A
C2178      C2179   1.511       .  S
C2179      F2183   1.378       .  S
C2179      F2184   1.384       .  S
C2179      F2185   1.362       .  S
C2182      F2186   1.378       .  S
C2182      F2187   1.383       .  S
C2182      F2188   1.382       .  S
C2189      C2190   1.402       .  A
C2189      C2194   1.407       .  A
C2189      H2196   1.085       .  S
C2190      C2191   1.414       .  A
C2191      C2192   1.401       .  A
C2191      C2198   1.522       .  S
C2192      C2193   1.412       .  A
C2192      H2197   1.082       .  S
C2193      C2194   1.427       .  A
C2194      C2195   1.517       .  S
C2195      F2199   1.385       .  S
C2195      F2200   1.368       .  S
C2195      F2201   1.382       .  S
C2198      F2202   1.384       .  S
C2198      F2203   1.378       .  S
C2198      F2204   1.384       .  S
C2205      C2206   1.398       .  A
C2205      C2210   1.400       .  A
C2205      H2212   1.082       .  S
C2206      C2207   1.417       .  A
C2207      C2208   1.411       .  A
C2207      C2214   1.519       .  S
C2208      C2209   1.410       .  A
C2208      H2213   1.081       .  S
C2209      C2210   1.420       .  A
C2210      C2211   1.504       .  S
C2211      F2215   1.379       .  S
C2211      F2216   1.372       .  S
C2211      F2217   1.379       .  S
C2214      F2218   1.382       .  S
C2214      F2219   1.380       .  S
C2214      F2220   1.384       .  S
C2221      C2222   1.407       .  A
C2221      C2226   1.400       .  A
C2221      H2228   1.083       .  S
C2222      C2223   1.414       .  A
C2223      C2224   1.403       .  A
C2223      C2230   1.519       .  S
C2224      C2225   1.410       .  A
C2224      H2229   1.082       .  S
C2225      C2226   1.424       .  A
C2226      C2227   1.528       .  S
C2227      F2231   1.379       .  S
C2227      F2232   1.373       .  S
C2227      F2233   1.380       .  S
C2230      F2234   1.384       .  S
C2230      F2235   1.383       .  S
C2230      F2236   1.385       .  S
C2237      C2238   1.405       .  A
C2237      C2242   1.404       .  A
C2237      H2244   1.084       .  S
C2238      C2239   1.424       .  A
C2239      C2240   1.399       .  A
C2239      C2246   1.519       .  S
C2240      C2241   1.397       .  A
C2240      H2245   1.082       .  S
C2241      C2242   1.422       .  A
C2242      C2243   1.516       .  S
C2243      F2247   1.383       .  S
C2243      F2248   1.384       .  S
C2243      F2249   1.376       .  S
C2246      F2250   1.380       .  S
C2246      F2251   1.381       .  S
C2246      F2252   1.385       .  S
C2253      C2254   1.398       .  A
C2253      C2258   1.406       .  A
C2253      H2260   1.085   1_455  S
C2254      C2255   1.408       .  A
C2255      C2256   1.407       .  A
C2255      C2262   1.513       .  S
C2256      C2257   1.410       .  A
C2256      H2261   1.081       .  S
C2257      C2258   1.432       .  A
C2258      C2259   1.518   1_455  S
C2259      F2263   1.383       .  S
C2259      F2264   1.383       .  S
C2259      F2265   1.370       .  S
C2262      F2266   1.380       .  S
C2262      F2267   1.383       .  S
C2262      F2268   1.384       .  S
C2269      C2270   1.415       .  A
C2269      C2274   1.417       .  A
C2269      H2276   1.083       .  S
C2270      C2271   1.416       .  A
C2271      C2272   1.396       .  A
C2271      C2278   1.519       .  S
C2272      C2273   1.411       .  A
C2272      H2277   1.080       .  S
C2273      C2274   1.418       .  A
C2274      C2275   1.515       .  S
C2275      F2279   1.385       .  S
C2275      F2280   1.382       .  S
C2275      F2281   1.383       .  S
C2278      F2282   1.371       .  S
C2278      F2283   1.375       .  S
C2278      F2284   1.385       .  S
C2285      C2286   1.398       .  A
C2285      C2290   1.405       .  A
C2285      H2292   1.085       .  S
C2286      C2287   1.415       .  A
C2287      C2288   1.404       .  A
C2287      C2294   1.517   1_455  S
C2288      C2289   1.407       .  A
C2288      H2293   1.083       .  S
C2289      C2290   1.431       .  A
C2290      C2291   1.518       .  S
C2291      F2295   1.384       .  S
C2291      F2296   1.380       .  S
C2291      F2297   1.382       .  S
C2294      F2298   1.379       .  S
C2294      F2299   1.382   1_655  S
C2294      F2300   1.385       .  S
C2301      C2302   1.414       .  A
C2301      C2306   1.414       .  A
C2301      H2308   1.078       .  S
C2302      C2303   1.420       .  A
C2303      C2304   1.413       .  A
C2303      C2310   1.517       .  S
C2304      C2305   1.418       .  A
C2304      H2309   1.078       .  S
C2305      C2306   1.432       .  A
C2306      C2307   1.521       .  S
C2307      F2311   1.386       .  S
C2307      F2312   1.369       .  S
C2307      F2313   1.382       .  S
C2310      F2314   1.384       .  S
C2310      F2315   1.374       .  S
C2310      F2316   1.383       .  S
C2317      C2318   1.394       .  A
C2317      C2322   1.395       .  A
C2317      H2324   1.082       .  S
C2318      C2319   1.433       .  A
C2319      C2320   1.421       .  A
C2319      C2326   1.530       .  S
C2320      C2321   1.408       .  A
C2320      H2325   1.082       .  S
C2321      C2322   1.421       .  A
C2322      C2323   1.510       .  S
C2323      F2327   1.385       .  S
C2323      F2328   1.382       .  S
C2323      F2329   1.381       .  S
C2326      F2330   1.378       .  S
C2326      F2331   1.365       .  S
C2326      F2332   1.385       .  S
C2333      C2334   1.422       .  A
C2333      C2338   1.423       .  A
C2333      H2340   1.065       .  S
C2334      C2335   1.420       .  A
C2335      C2336   1.399       .  A
C2335      C2342   1.506       .  S
C2336      C2337   1.404       .  A
C2336      H2341   1.084       .  S
C2337      C2338   1.416       .  A
C2338      C2339   1.515       .  S
C2339      F2343   1.384       .  S
C2339      F2344   1.383       .  S
C2339      F2345   1.382       .  S
C2342      F2346   1.378       .  S
C2342      F2347   1.377       .  S
C2342      F2348   1.378       .  S
C2349      C2350   1.401       .  A
C2349      C2354   1.401       .  A
C2349      H2356   1.083       .  S
C2350      C2351   1.422       .  A
C2351      C2352   1.406       .  A
C2351      C2358   1.517       .  S
C2352      C2353   1.403       .  A
C2352      H2357   1.083       .  S
C2353      C2354   1.420       .  A
C2354      C2355   1.515       .  S
C2355      F2359   1.380       .  S
C2355      F2360   1.370       .  S
C2355      F2361   1.382       .  S
C2358      F2362   1.383       .  S
C2358      F2363   1.380       .  S
C2358      F2364   1.385       .  S
C2365      C2366   1.401       .  A
C2365      C2370   1.393       .  A
C2365      H2372   1.080       .  S
C2366      C2367   1.421       .  A
C2367      C2368   1.410       .  A
C2367      C2374   1.519       .  S
C2368      C2369   1.404       .  A
C2368      H2373   1.082       .  S
C2369      C2370   1.428       .  A
C2370      C2371   1.530       .  S
C2371      F2375   1.383       .  S
C2371      F2376   1.363       .  S
C2371      F2377   1.380       .  S
C2374      F2378   1.383       .  S
C2374      F2379   1.384       .  S
C2374      F2380   1.385       .  S
C2381      C2382   1.385       .  A
C2381      C2386   1.397       .  A
C2381      H2388   1.082       .  S
C2382      C2383   1.414       .  A
C2383      C2384   1.419       .  A
C2383      C2390   1.514       .  S
C2384      C2385   1.413       .  A
C2384      H2389   1.079       .  S
C2385      C2386   1.420       .  A
C2386      C2387   1.490       .  S
C2387      F2391   1.379       .  S
C2387      F2392   1.358       .  S
C2387      F2393   1.365       .  S
C2390      F2394   1.365       .  S
C2390      F2395   1.381       .  S
C2390      F2396   1.383       .  S
C2397      C2398   1.403       .  A
C2397      C2402   1.403       .  A
C2397      H2404   1.082       .  S
C2398      C2399   1.422       .  A
C2399      C2400   1.398       .  A
C2399      C2406   1.523       .  S
C2400      C2401   1.400       .  A
C2400      H2405   1.076       .  S
C2401      C2402   1.411       .  A
C2402      C2403   1.509       .  S
C2403      F2407   1.385       .  S
C2403      F2408   1.357       .  S
C2403      F2409   1.378       .  S
C2406      F2410   1.384       .  S
C2406      F2411   1.382       .  S
C2406      F2412   1.385       .  S
C2413      C2414   1.399       .  A
C2413      C2418   1.417       .  A
C2413      H2420   1.084       .  S
C2414      C2415   1.418       .  A
C2415      C2416   1.404       .  A
C2415      C2422   1.512       .  S
C2416      C2417   1.401       .  A
C2416      H2421   1.085       .  S
C2417      C2418   1.444       .  A
C2418      C2419   1.520       .  S
C2419      F2423   1.380       .  S
C2419      F2424   1.382       .  S
C2419      F2425   1.371       .  S
C2422      F2426   1.383       .  S
C2422      F2427   1.384       .  S
C2422      F2428   1.383       .  S
C2429      C2430   1.406       .  A
C2429      C2434   1.409       .  A
C2429      H2436   1.083       .  S
C2430      C2431   1.448       .  A
C2431      C2432   1.416       .  A
C2431      C2438   1.505       .  S
C2432      C2433   1.401       .  A
C2432      H2437   1.084       .  S
C2433      C2434   1.424       .  A
C2434      C2435   1.535       .  S
C2435      F2439   1.373       .  S
C2435      F2440   1.379       .  S
C2435      F2441   1.388       .  S
C2438      F2442   1.382       .  S
C2438      F2443   1.384       .  S
C2438      F2444   1.386       .  S
C2445      C2446   1.402       .  A
C2445      C2450   1.406       .  A
C2445      H2452   1.083       .  S
C2446      C2447   1.424       .  A
C2447      C2448   1.404       .  A
C2447      C2454   1.517       .  S
C2448      C2449   1.399       .  A
C2448      H2453   1.085       .  S
C2449      C2450   1.415       .  A
C2450      C2451   1.519       .  S
C2451      F2455   1.384   1_554  S
C2451      F2456   1.382   1_554  S
C2451      F2457   1.383       .  S
C2454      F2458   1.378       .  S
C2454      F2459   1.382       .  S
C2454      F2460   1.383       .  S
C2461      C2462   1.395       .  A
C2461      C2466   1.415       .  A
C2461      H2468   1.083       .  S
C2462      C2463   1.412       .  A
C2463      C2464   1.418       .  A
C2463      C2470   1.514       .  S
C2464      C2465   1.417       .  A
C2464      H2469   1.080       .  S
C2465      C2466   1.427       .  A
C2466      C2467   1.519       .  S
C2467      F2471   1.375       .  S
C2467      F2472   1.381       .  S
C2467      F2473   1.362       .  S
C2470      F2474   1.383       .  S
C2470      F2475   1.382       .  S
C2470      F2476   1.384       .  S
C2477      C2478   1.407       .  A
C2477      C2482   1.406       .  A
C2477      H2484   1.084       .  S
C2478      C2479   1.421       .  A
C2479      C2480   1.404       .  A
C2479      C2486   1.520       .  S
C2480      C2481   1.406       .  A
C2480      H2485   1.078       .  S
C2481      C2482   1.428       .  A
C2482      C2483   1.519       .  S
C2483      F2487   1.384       .  S
C2483      F2488   1.382       .  S
C2483      F2489   1.378       .  S
C2486      F2490   1.383       .  S
C2486      F2491   1.378       .  S
C2486      F2492   1.385       .  S
C2493      C2494   1.404       .  A
C2493      C2498   1.408       .  A
C2493      H2500   1.080       .  S
C2494      C2495   1.413       .  A
C2495      C2496   1.400       .  A
C2495      C2502   1.521       .  S
C2496      C2497   1.411       .  A
C2496      H2501   1.078       .  S
C2497      C2498   1.419       .  A
C2498      C2499   1.517       .  S
C2499      F2503   1.383       .  S
C2499      F2504   1.380       .  S
C2499      F2505   1.383       .  S
C2502      F2506   1.384       .  S
C2502      F2507   1.380       .  S
C2502      F2508   1.384       .  S
C2509      C2510   1.389       .  A
C2509      C2514   1.392       .  A
C2509      H2516   1.077       .  S
C2510      C2511   1.425       .  A
C2511      C2512   1.406       .  A
C2511      C2518   1.517       .  S
C2512      C2513   1.403       .  A
C2512      H2517   1.084       .  S
C2513      C2514   1.426       .  A
C2514      C2515   1.520       .  S
C2515      F2519   1.384       .  S
C2515      F2520   1.375       .  S
C2515      F2521   1.381       .  S
C2518      F2522   1.377       .  S
C2518      F2523   1.383       .  S
C2518      F2524   1.384       .  S
C2525      C2526   1.394       .  A
C2525      C2530   1.389       .  A
C2525      H2532   1.086       .  S
C2526      C2527   1.421       .  A
C2527      C2528   1.407       .  A
C2527      C2534   1.517       .  S
C2528      C2529   1.402       .  A
C2528      H2533   1.080       .  S
C2529      C2530   1.418       .  A
C2530      C2531   1.520       .  S
C2531      F2535   1.382       .  S
C2531      F2536   1.380       .  S
C2531      F2537   1.380       .  S
C2534      F2538   1.382       .  S
C2534      F2539   1.383       .  S
C2534      F2540   1.383       .  S
C2541      C2542   1.411       .  A
C2541      C2546   1.412       .  A
C2541      H2548   1.084       .  S
C2542      C2543   1.418       .  A
C2543      C2544   1.415       .  A
C2543      C2550   1.519       .  S
C2544      C2545   1.418       .  A
C2544      H2549   1.080       .  S
C2545      C2546   1.427       .  A
C2546      C2547   1.515       .  S
C2547      F2551   1.383       .  S
C2547      F2552   1.366       .  S
C2547      F2553   1.383       .  S
C2550      F2554   1.383       .  S
C2550      F2555   1.377       .  S
C2550      F2556   1.384       .  S
C2557      C2558   1.407       .  A
C2557      C2562   1.407       .  A
C2557      H2564   1.067       .  S
C2558      C2559   1.432       .  A
C2559      C2560   1.413       .  A
C2559      C2566   1.507       .  S
C2560      C2561   1.390       .  A
C2560      H2565   1.083       .  S
C2561      C2562   1.409       .  A
C2562      C2563   1.515       .  S
C2563      F2567   1.382       .  S
C2563      F2568   1.380       .  S
C2563      F2569   1.383       .  S
C2566      F2570   1.383       .  S
C2566      F2571   1.366       .  S
C2566      F2572   1.378       .  S
C2573      C2574   1.401       .  A
C2573      C2578   1.406       .  A
C2573      H2580   1.085       .  S
C2574      C2575   1.414       .  A
C2575      C2576   1.404       .  A
C2575      C2582   1.513       .  S
C2576      C2577   1.403       .  A
C2576      H2581   1.077       .  S
C2577      C2578   1.425       .  A
C2578      C2579   1.516       .  S
C2579      F2583   1.384       .  S
C2579      F2584   1.377       .  S
C2579      F2585   1.382       .  S
C2582      F2586   1.382       .  S
C2582      F2587   1.382       .  S
C2582      F2588   1.385       .  S
C2589      C2590   1.402       .  A
C2589      C2594   1.416       .  A
C2589      H2596   1.084       .  S
C2590      C2591   1.419       .  A
C2591      C2592   1.409       .  A
C2591      C2598   1.521       .  S
C2592      C2593   1.412       .  A
C2592      H2597   1.081       .  S
C2593      C2594   1.429       .  A
C2594      C2595   1.506       .  S
C2595      F2599   1.367       .  S
C2595      F2600   1.384       .  S
C2595      F2601   1.362       .  S
C2598      F2602   1.384       .  S
C2598      F2603   1.382       .  S
C2598      F2604   1.385       .  S
C2605      C2606   1.399       .  A
C2605      C2610   1.393   1_565  A
C2605      H2612   1.082       .  S
C2606      C2607   1.428   1_565  A
C2607      C2608   1.425       .  A
C2607      C2614   1.512       .  S
C2608      C2609   1.418       .  A
C2608      H2613   1.079       .  S
C2609      C2610   1.429       .  A
C2610      C2611   1.518   1_545  S
C2611      F2615   1.385       .  S
C2611      F2616   1.379       .  S
C2611      F2617   1.381       .  S
C2614      F2618   1.384       .  S
C2614      F2619   1.378   1_545  S
C2614      F2620   1.381       .  S
C2621      C2622   1.411       .  A
C2621      C2626   1.412       .  A
C2621      H2628   1.076       .  S
C2622      C2623   1.427       .  A
C2623      C2624   1.425       .  A
C2623      C2630   1.512       .  S
C2624      C2625   1.418       .  A
C2624      H2629   1.084       .  S
C2625      C2626   1.425       .  A
C2626      C2627   1.513       .  S
C2627      F2631   1.386       .  S
C2627      F2632   1.377       .  S
C2627      F2633   1.380       .  S
C2630      F2634   1.384       .  S
C2630      F2635   1.380       .  S
C2630      F2636   1.384       .  S
C2637      C2638   1.427       .  A
C2637      C2642   1.436       .  A
C2637      H2644   1.075       .  S
C2638      C2639   1.437       .  A
C2639      C2640   1.401       .  A
C2639      C2646   1.530       .  S
C2640      C2641   1.399       .  A
C2640      H2645   1.081       .  S
C2641      C2642   1.428       .  A
C2642      C2643   1.521       .  S
C2643      F2647   1.382       .  S
C2643      F2648   1.378       .  S
C2643      F2649   1.378       .  S
C2646      F2650   1.375       .  S
C2646      F2651   1.380       .  S
C2646      F2652   1.385       .  S
C2653      C2654   1.406   1_545  A
C2653      C2658   1.414       .  A
C2653      H2660   1.083       .  S
C2654      C2655   1.433   1_565  A
C2655      C2656   1.423       .  A
C2655      C2662   1.514   1_545  S
C2656      C2657   1.408       .  A
C2656      H2661   1.084       .  S
C2657      C2658   1.431       .  A
C2658      C2659   1.517       .  S
C2659      F2663   1.384       .  S
C2659      F2664   1.379       .  S
C2659      F2665   1.383       .  S
C2662      F2666   1.384   1_565  S
C2662      F2667   1.375       .  S
C2662      F2668   1.383       .  S
C2669      C2670   1.414       .  A
C2669      C2674   1.432       .  A
C2669      H2676   1.081       .  S
C2670      C2671   1.415       .  A
C2671      C2672   1.392       .  A
C2671      C2678   1.519       .  S
C2672      C2673   1.420       .  A
C2672      H2677   1.076       .  S
C2673      C2674   1.442       .  A
C2674      C2675   1.512       .  S
C2675      F2679   1.386       .  S
C2675      F2680   1.378       .  S
C2675      F2681   1.379       .  S
C2678      F2682   1.385       .  S
C2678      F2683   1.371       .  S
C2678      F2684   1.377       .  S
C2685      C2686   1.408       .  A
C2685      C2690   1.416       .  A
C2685      H2692   1.075       .  S
C2686      C2687   1.433       .  A
C2687      C2688   1.406       .  A
C2687      C2694   1.516       .  S
C2688      C2689   1.408       .  A
C2688      H2693   1.085   1_455  S
C2689      C2690   1.430       .  A
C2690      C2691   1.514       .  S
C2691      F2695   1.385       .  S
C2691      F2696   1.371       .  S
C2691      F2697   1.379       .  S
C2694      F2698   1.364       .  S
C2694      F2699   1.384       .  S
C2694      F2700   1.381   1_455  S
C2701      C2702   1.404       .  A
C2701      C2706   1.395   1_655  A
C2701      H2708   1.081       .  S
C2702      C2703   1.433   1_655  A
C2703      C2704   1.430       .  A
C2703      C2710   1.513       .  S
C2704      C2705   1.416       .  A
C2704      H2709   1.083       .  S
C2705      C2706   1.430       .  A
C2706      C2707   1.519       .  S
C2707      F2711   1.366   1_455  S
C2707      F2712   1.375   1_455  S
C2707      F2713   1.371       .  S
C2710      F2714   1.382       .  S
C2710      F2715   1.382       .  S
C2710      F2716   1.382       .  S
C2717      C2718   1.411       .  A
C2717      C2722   1.408       .  A
C2717      H2724   1.076       .  S
C2718      C2719   1.438       .  A
C2719      C2720   1.424       .  A
C2719      C2726   1.518       .  S
C2720      C2721   1.416       .  A
C2720      H2725   1.084       .  S
C2721      C2722   1.426       .  A
C2722      C2723   1.519       .  S
C2723      F2727   1.386       .  S
C2723      F2728   1.372       .  S
C2723      F2729   1.381       .  S
C2726      F2730   1.368       .  S
C2726      F2731   1.374       .  S
C2726      F2732   1.380       .  S
C2733      C2734   1.418       .  A
C2733      C2738   1.419       .  A
C2733      H2740   1.083       .  S
C2734      C2735   1.434       .  A
C2735      C2736   1.411       .  A
C2735      C2742   1.515       .  S
C2736      C2737   1.405       .  A
C2736      H2741   1.083       .  S
C2737      C2738   1.421       .  A
C2738      C2739   1.519       .  S
C2739      F2743   1.385       .  S
C2739      F2744   1.378       .  S
C2739      F2745   1.381       .  S
C2742      F2746   1.383       .  S
C2742      F2747   1.360       .  S
C2742      F2748   1.386       .  S
C2749      C2750   1.418       .  A
C2749      C2754   1.397   1_545  A
C2749      H2756   1.079   1_545  S
C2750      C2751   1.446       .  A
C2751      C2752   1.433       .  A
C2751      C2758   1.510       .  S
C2752      C2753   1.412   1_545  A
C2752      H2757   1.081       .  S
C2753      C2754   1.410       .  A
C2754      C2755   1.516       .  S
C2755      F2759   1.384       .  S
C2755      F2760   1.373       .  S
C2755      F2761   1.380       .  S
C2758      F2762   1.377       .  S
C2758      F2763   1.373       .  S
C2758      F2764   1.386       .  S
C2765      C2766   1.411       .  A
C2765      C2770   1.415       .  A
C2765      H2772   1.074       .  S
C2766      C2767   1.440       .  A
C2767      C2768   1.421       .  A
C2767      C2774   1.516       .  S
C2768      C2769   1.404   1_545  A
C2768      H2773   1.083       .  S
C2769      C2770   1.420   1_565  A
C2770      C2771   1.516   1_545  S
C2771      F2775   1.383       .  S
C2771      F2776   1.383       .  S
C2771      F2777   1.384   1_565  S
C2774      F2778   1.382       .  S
C2774      F2779   1.375       .  S
C2774      F2780   1.386       .  S
C2781      C2782   1.414       .  A
C2781      C2786   1.431       .  A
C2781      H2788   1.081       .  S
C2782      C2783   1.419       .  A
C2783      C2784   1.399       .  A
C2783      C2790   1.526       .  S
C2784      C2785   1.410       .  A
C2784      H2789   1.076       .  S
C2785      C2786   1.438       .  A
C2786      C2787   1.512       .  S
C2787      F2791   1.385       .  S
C2787      F2792   1.377       .  S
C2787      F2793   1.376       .  S
C2790      F2794   1.367       .  S
C2790      F2795   1.375       .  S
C2790      F2796   1.386       .  S
C2797      C2798   1.401   1_455  A
C2797      C2802   1.412       .  A
C2797      H2804   1.057       .  S
C2798      C2799   1.432       .  A
C2799      C2800   1.430   1_655  A
C2799      C2806   1.514       .  S
C2800      C2801   1.414       .  A
C2800      H2805   1.084       .  S
C2801      C2802   1.432       .  A
C2802      C2803   1.520       .  S
C2803      F2807   1.377       .  S
C2803      F2808   1.379       .  S
C2803      F2809   1.368       .  S
C2806      F2810   1.382       .  S
C2806      F2811   1.384       .  S
C2806      F2812   1.383       .  S
C2813      C2814   1.417       .  A
C2813      C2818   1.429       .  A
C2813      H2820   1.077       .  S
C2814      C2815   1.413       .  A
C2815      C2816   1.399       .  A
C2815      C2822   1.516       .  S
C2816      C2817   1.415       .  A
C2816      H2821   1.081       .  S
C2817      C2818   1.442       .  A
C2818      C2819   1.518       .  S
C2819      F2823   1.380       .  S
C2819      F2824   1.378       .  S
C2819      F2825   1.383       .  S
C2822      F2826   1.372       .  S
C2822      F2827   1.382       .  S
C2822      F2828   1.385       .  S
C2829      C2830   1.408       .  A
C2829      C2834   1.427       .  A
C2829      H2836   1.082       .  S
C2830      C2831   1.407       .  A
C2831      C2832   1.404       .  A
C2831      C2838   1.515       .  S
C2832      C2833   1.412       .  A
C2832      H2837   1.063       .  S
C2833      C2834   1.433       .  A
C2834      C2835   1.519       .  S
C2835      F2839   1.385       .  S
C2835      F2840   1.379       .  S
C2835      F2841   1.378       .  S
C2838      F2842   1.378       .  S
C2838      F2843   1.382       .  S
C2838      F2844   1.384       .  S
C2845      C2846   1.394       .  A
C2845      C2850   1.412   1_655  A
C2845      H2852   1.082       .  S
C2846      C2847   1.432       .  A
C2847      C2848   1.432   1_655  A
C2847      C2854   1.507       .  S
C2848      C2849   1.414       .  A
C2848      H2853   1.082       .  S
C2849      C2850   1.450       .  A
C2850      C2851   1.527       .  S
C2851      F2855   1.386       .  S
C2851      F2856   1.374       .  S
C2851      F2857   1.378       .  S
C2854      F2858   1.376       .  S
C2854      F2859   1.381       .  S
C2854      F2860   1.383   1_655  S
C2861      C2862   1.401       .  A
C2861      C2866   1.412       .  A
C2861      H2868   1.085       .  S
C2862      C2863   1.420       .  A
C2863      C2864   1.419       .  A
C2863      C2870   1.524       .  S
C2864      C2865   1.422       .  A
C2864      H2869   1.077       .  S
C2865      C2866   1.439       .  A
C2866      C2867   1.513       .  S
C2867      F2871   1.386       .  S
C2867      F2872   1.357       .  S
C2867      F2873   1.382       .  S
C2870      F2874   1.382       .  S
C2870      F2875   1.377       .  S
C2870      F2876   1.383       .  S
C2877      C2878   1.411       .  A
C2877      C2882   1.426       .  A
C2877      H2884   1.084       .  S
C2878      C2879   1.424       .  A
C2879      C2880   1.405       .  A
C2879      C2886   1.526       .  S
C2880      C2881   1.417       .  A
C2880      H2885   1.074       .  S
C2881      C2882   1.435       .  A
C2882      C2883   1.515       .  S
C2883      F2887   1.387       .  S
C2883      F2888   1.378       .  S
C2883      F2889   1.377       .  S
C2886      F2890   1.375       .  S
C2886      F2891   1.373   1_556  S
C2886      F2892   1.385       .  S
C2893      C2894   1.412       .  A
C2893      C2898   1.436       .  A
C2893      H2900   1.083       .  S
C2894      C2895   1.414       .  A
C2895      C2896   1.397       .  A
C2895      C2902   1.532       .  S
C2896      C2897   1.427       .  A
C2896      H2901   1.072       .  S
C2897      C2898   1.447       .  A
C2898      C2899   1.515       .  S
C2899      F2903   1.386       .  S
C2899      F2904   1.375       .  S
C2899      F2905   1.380       .  S
C2902      F2906   1.384       .  S
C2902      F2907   1.368   1_554  S
C2902      F2908   1.370   1_554  S
C2909      C2910   1.406       .  A
C2909      C2914   1.420       .  A
C2909      H2916   1.070       .  S
C2910      C2911   1.420       .  A
C2911      C2912   1.415       .  A
C2911      C2918   1.514       .  S
C2912      C2913   1.413       .  A
C2912      H2917   1.077       .  S
C2913      C2914   1.429       .  A
C2914      C2915   1.511       .  S
C2915      F2919   1.385       .  S
C2915      F2920   1.375       .  S
C2915      F2921   1.383       .  S
C2918      F2922   1.383   1_556  S
C2918      F2923   1.383   1_556  S
C2918      F2924   1.383       .  S
C2925      C2926   1.400       .  A
C2925      C2930   1.415       .  A
C2925      H2932   1.078       .  S
C2926      C2927   1.424       .  A
C2927      C2928   1.416       .  A
C2927      C2934   1.518       .  S
C2928      C2929   1.411       .  A
C2928      H2933   1.063       .  S
C2929      C2930   1.432       .  A
C2930      C2931   1.514       .  S
C2931      F2935   1.384       .  S
C2931      F2936   1.381       .  S
C2931      F2937   1.379       .  S
C2934      F2938   1.382       .  S
C2934      F2939   1.379       .  S
C2934      F2940   1.384       .  S
C2941      C2942   1.411       .  A
C2941      C2946   1.426       .  A
C2941      H2948   1.072       .  S
C2942      C2943   1.431       .  A
C2943      C2944   1.410       .  A
C2943      C2950   1.517       .  S
C2944      C2945   1.412       .  A
C2944      H2949   1.071       .  S
C2945      C2946   1.435       .  A
C2946      C2947   1.504       .  S
C2947      F2951   1.383       .  S
C2947      F2952   1.360       .  S
C2947      F2953   1.384       .  S
C2950      F2954   1.362       .  S
C2950      F2955   1.384       .  S
C2950      F2956   1.384       .  S
C2957      C2958   1.422       .  A
C2957      C2962   1.439       .  A
C2957      H2964   1.077       .  S
C2958      C2959   1.410       .  A
C2959      C2960   1.397       .  A
C2959      C2966   1.519       .  S
C2960      C2961   1.408       .  A
C2960      H2965   1.071       .  S
C2961      C2962   1.437       .  A
C2962      C2963   1.513       .  S
C2963      F2967   1.382       .  S
C2963      F2968   1.377       .  S
C2963      F2969   1.384       .  S
C2966      F2970   1.373   1_554  S
C2966      F2971   1.372       .  S
C2966      F2972   1.385       .  S
C2973      C2974   1.399       .  A
C2973      C2978   1.414       .  A
C2973      H2980   1.061       .  S
C2974      C2975   1.436       .  A
C2975      C2976   1.429       .  A
C2975      C2982   1.514       .  S
C2976      C2977   1.410       .  A
C2976      H2981   1.084       .  S
C2977      C2978   1.430       .  A
C2978      C2979   1.515       .  S
C2979      F2983   1.385       .  S
C2979      F2984   1.383       .  S
C2979      F2985   1.373       .  S
C2982      F2986   1.383   1_556  S
C2982      F2987   1.378   1_556  S
C2982      F2988   1.384       .  S
C2989      C2990   1.416       .  A
C2989      C2994   1.419       .  A
C2989      H2996   1.061       .  S
C2990      C2991   1.427       .  A
C2991      C2992   1.408       .  A
C2991      C2998   1.512       .  S
C2992      C2993   1.401       .  A
C2992      H2997   1.084       .  S
C2993      C2994   1.429       .  A
C2994      C2995   1.524       .  S
C2995      F2999   1.370       .  S
C2995      F3000   1.373       .  S
C2995      F3001   1.385       .  S
C2998      F3002   1.373       .  S
C2998      F3003   1.381       .  S
C2998      F3004   1.386       .  S
C3005      C3006   1.380       .  A
C3005      C3010   1.400       .  A
C3005      H3012   1.063       .  S
C3006      C3007   1.415       .  A
C3007      C3008   1.410       .  A
C3007      C3014   1.514       .  S
C3008      C3009   1.426       .  A
C3008      H3013   1.082       .  S
C3009      C3010   1.440       .  A
C3010      C3011   1.491       .  S
C3011      F3015   1.387       .  S
C3011      F3016   1.372       .  S
C3011      F3017   1.368       .  S
C3014      F3018   1.373       .  S
C3014      F3019   1.376       .  S
C3014      F3020   1.380       .  S
C3021      C3022   1.398       .  A
C3021      C3026   1.408       .  A
C3021      H3028   1.081       .  S
C3022      C3023   1.429       .  A
C3023      C3024   1.422       .  A
C3023      C3030   1.514       .  S
C3024      C3025   1.408       .  A
C3024      H3029   1.072       .  S
C3025      C3026   1.446       .  A
C3026      C3027   1.530       .  S
C3027      F3031   1.378       .  S
C3027      F3032   1.376       .  S
C3027      F3033   1.376       .  S
C3030      F3034   1.379       .  S
C3030      F3035   1.373       .  S
C3030      F3036   1.383       .  S
C3037      C3038   1.402       .  A
C3037      C3042   1.400       .  A
C3037      H3044   1.075       .  S
C3038      C3039   1.424       .  A
C3039      C3040   1.402       .  A
C3039      C3046   1.507       .  S
C3040      C3041   1.399       .  A
C3040      H3045   1.084       .  S
C3041      C3042   1.413       .  A
C3042      C3043   1.519       .  S
C3043      F3047   1.383       .  S
C3043      F3048   1.381       .  S
C3043      F3049   1.371       .  S
C3046      F3050   1.381       .  S
C3046      F3051   1.374       .  S
C3046      F3052   1.385       .  S
C3053      C3054   1.405       .  A
C3053      C3058   1.390       .  A
C3053      H3060   1.080       .  S
C3054      C3055   1.443       .  A
C3055      C3056   1.426       .  A
C3055      C3062   1.539       .  S
C3056      C3057   1.413       .  A
C3056      H3061   1.083       .  S
C3057      C3058   1.429       .  A
C3058      C3059   1.533       .  S
C3059      F3063   1.380       .  S
C3059      F3064   1.379       .  S
C3059      F3065   1.370       .  S
C3062      F3066   1.367       .  S
C3062      F3067   1.374       .  S
C3062      F3068   1.386       .  S
C3069      C3070   1.436       .  A
C3069      C3074   1.430       .  A
C3069      H3076   1.066       .  S
C3070      C3071   1.462       .  A
C3071      C3072   1.397       .  A
C3071      C3078   1.498       .  S
C3072      C3073   1.370       .  A
C3072      H3077   1.082       .  S
C3073      C3074   1.405       .  A
C3074      C3075   1.508       .  S
C3075      F3079   1.377       .  S
C3075      F3080   1.378       .  S
C3075      F3081   1.383       .  S
C3078      F3082   1.347       .  S
C3078      F3083   1.358       .  S
C3078      F3084   1.386       .  S
C3085      C3086   1.402       .  A
C3085      C3090   1.405       .  A
C3085      H3092   1.069       .  S
C3086      C3087   1.417       .  A
C3087      C3088   1.404       .  A
C3087      C3094   1.517       .  S
C3088      C3089   1.413       .  A
C3088      H3093   1.077       .  S
C3089      C3090   1.437       .  A
C3090      C3091   1.519       .  S
C3091      F3095   1.381       .  S
C3091      F3096   1.364       .  S
C3091      F3097   1.385       .  S
C3094      F3098   1.378       .  S
C3094      F3099   1.380       .  S
C3094      F3100   1.385       .  S
C3101      C3102   1.402       .  A
C3101      C3106   1.413       .  A
C3101      H3108   1.064       .  S
C3102      C3103   1.432       .  A
C3103      C3104   1.437       .  A
C3103      C3110   1.513       .  S
C3104      C3105   1.421       .  A
C3104      H3109   1.082       .  S
C3105      C3106   1.416       .  A
C3106      C3107   1.512       .  S
C3107      F3111   1.379       .  S
C3107      F3112   1.379       .  S
C3107      F3113   1.382       .  S
C3110      F3114   1.382       .  S
C3110      F3115   1.383       .  S
C3110      F3116   1.381       .  S
C3117      C3118   1.419       .  A
C3117      C3122   1.407       .  A
C3117      H3124   1.058       .  S
C3118      C3119   1.421       .  A
C3119      C3120   1.405       .  A
C3119      C3126   1.503       .  S
C3120      C3121   1.403       .  A
C3120      H3125   1.084       .  S
C3121      C3122   1.414       .  A
C3122      C3123   1.513       .  S
C3123      F3127   1.383       .  S
C3123      F3128   1.383       .  S
C3123      F3129   1.379       .  S
C3126      F3130   1.372       .  S
C3126      F3131   1.381       .  S
C3126      F3132   1.383       .  S
C3133      C3134   1.415       .  A
C3133      C3138   1.420       .  A
C3133      H3140   1.083       .  S
C3134      C3135   1.412       .  A
C3135      C3136   1.379       .  A
C3135      C3142   1.531       .  S
C3136      C3137   1.417       .  A
C3136      H3141   1.074       .  S
C3137      C3138   1.428       .  A
C3138      C3139   1.515       .  S
C3139      F3143   1.384       .  S
C3139      F3144   1.380       .  S
C3139      F3145   1.375       .  S
C3142      F3146   1.382       .  S
C3142      F3147   1.370       .  S
C3142      F3148   1.385       .  S
C3149      C3150   1.410       .  A
C3149      C3154   1.404       .  A
C3149      H3156   1.078       .  S
C3150      C3151   1.429       .  A
C3151      C3152   1.415       .  A
C3151      C3158   1.517       .  S
C3152      C3153   1.409       .  A
C3152      H3157   1.082       .  S
C3153      C3154   1.419       .  A
C3154      C3155   1.514       .  S
C3155      F3159   1.385       .  S
C3155      F3160   1.378       .  S
C3155      F3161   1.380       .  S
C3158      F3162   1.381       .  S
C3158      F3163   1.369       .  S
C3158      F3164   1.377       .  S
C3165      C3166   1.424       .  A
C3165      C3170   1.393       .  A
C3165      H3172   1.081       .  S
C3166      C3167   1.444       .  A
C3167      C3168   1.412       .  A
C3167      C3174   1.499       .  S
C3168      C3169   1.392       .  A
C3168      H3173   1.083       .  S
C3169      C3170   1.403       .  A
C3170      C3171   1.517       .  S
C3171      F3175   1.385       .  S
C3171      F3176   1.382       .  S
C3171      F3177   1.373       .  S
C3174      F3178   1.374       .  S
C3174      F3179   1.374       .  S
C3174      F3180   1.387       .  S
C3181      C3182   1.404       .  A
C3181      C3186   1.412       .  A
C3181      H3188   1.071       .  S
C3182      C3183   1.422       .  A
C3183      C3184   1.401       .  A
C3183      C3190   1.517       .  S
C3184      C3185   1.414       .  A
C3184      H3189   1.079       .  S
C3185      C3186   1.431       .  A
C3186      C3187   1.505       .  S
C3187      F3191   1.383       .  S
C3187      F3192   1.352       .  S
C3187      F3193   1.383       .  S
C3190      F3194   1.382       .  S
C3190      F3195   1.367       .  S
C3190      F3196   1.383       .  S
C3197      C3198   1.405       .  A
C3197      C3202   1.400       .  A
C3197      H3204   1.078       .  S
C3198      C3199   1.421       .  A
C3199      C3200   1.403       .  A
C3199      C3206   1.515       .  S
C3200      C3201   1.406       .  A
C3200      H3205   1.082       .  S
C3201      C3202   1.420       .  A
C3202      C3203   1.514       .  S
C3203      F3207   1.384       .  S
C3203      F3208   1.382       .  S
C3203      F3209   1.383       .  S
C3206      F3210   1.378       .  S
C3206      F3211   1.382       .  S
C3206      F3212   1.381       .  S
C3213      C3214   1.388       .  A
C3213      C3218   1.392       .  A
C3213      H3220   1.070       .  S
C3214      C3215   1.448       .  A
C3215      C3216   1.435       .  A
C3215      C3222   1.524       .  S
C3216      C3217   1.411       .  A
C3216      H3221   1.079       .  S
C3217      C3218   1.439       .  A
C3218      C3219   1.525       .  S
C3219      F3223   1.359       .  S
C3219      F3224   1.366       .  S
C3219      F3225   1.378       .  S
C3222      F3226   1.379       .  S
C3222      F3227   1.365       .  S
C3222      F3228   1.379       .  S
C3229      C3230   1.424       .  A
C3229      C3234   1.419       .  A
C3229      H3236   1.066       .  S
C3230      C3231   1.420       .  A
C3231      C3232   1.411       .  A
C3231      C3238   1.516       .  S
C3232      C3233   1.410       .  A
C3232      H3237   1.081       .  S
C3233      C3234   1.418       .  A
C3234      C3235   1.519       .  S
C3235      F3239   1.382       .  S
C3235      F3240   1.379       .  S
C3235      F3241   1.382       .  S
C3238      F3242   1.380       .  S
C3238      F3243   1.381       .  S
C3238      F3244   1.379       .  S
C3245      C3246   1.414       .  A
C3245      C3250   1.410       .  A
C3245      H3252   1.073       .  S
C3246      C3247   1.457       .  A
C3247      C3248   1.419       .  A
C3247      C3254   1.492       .  S
C3248      C3249   1.383       .  A
C3248      H3253   1.083       .  S
C3249      C3250   1.420       .  A
C3250      C3251   1.510       .  S
C3251      F3255   1.386       .  S
C3251      F3256   1.378       .  S
C3251      F3257   1.378       .  S
C3254      F3258   1.372       .  S
C3254      F3259   1.359       .  S
C3254      F3260   1.387       .  S
C3261      C3262   1.402       .  A
C3261      C3266   1.413       .  A
C3261      H3268   1.085       .  S
C3262      C3263   1.429       .  A
C3263      C3264   1.405       .  A
C3263      C3270   1.518       .  S
C3264      C3265   1.413       .  A
C3264      H3269   1.081       .  S
C3265      C3266   1.441       .  A
C3266      C3267   1.521       .  S
C3267      F3271   1.379       .  S
C3267      F3272   1.369       .  S
C3267      F3273   1.368       .  S
C3270      F3274   1.380       .  S
C3270      F3275   1.379       .  S
C3270      F3276   1.382       .  S
C3277      C3278   1.399       .  A
C3277      C3282   1.404       .  A
C3277      H3284   1.062       .  S
C3278      C3279   1.424       .  A
C3279      C3280   1.406       .  A
C3279      C3286   1.509       .  S
C3280      C3281   1.413       .  A
C3280      H3285   1.070       .  S
C3281      C3282   1.429       .  A
C3282      C3283   1.515       .  S
C3283      F3287   1.383       .  S
C3283      F3288   1.383       .  S
C3283      F3289   1.370       .  S
C3286      F3290   1.384       .  S
C3286      F3291   1.376       .  S
C3286      F3292   1.378       .  S
C3293      C3294   1.397       .  A
C3293      C3298   1.398       .  A
C3293      H3300   1.083       .  S
C3294      C3295   1.423       .  A
C3295      C3296   1.420       .  A
C3295      C3302   1.512       .  S
C3296      C3297   1.416       .  A
C3296      H3301   1.081       .  S
C3297      C3298   1.449       .  A
C3298      C3299   1.542       .  S
C3299      F3303   1.380       .  S
C3299      F3304   1.381       .  S
C3299      F3305   1.375       .  S
C3302      F3306   1.378       .  S
C3302      F3307   1.374       .  S
C3302      F3308   1.366       .  S
C3309      C3310   1.403       .  A
C3309      C3314   1.399       .  A
C3309      H3316   1.068       .  S
C3310      C3311   1.430       .  A
C3311      C3312   1.419       .  A
C3311      C3318   1.521       .  S
C3312      C3313   1.418       .  A
C3312      H3317   1.068       .  S
C3313      C3314   1.389       .  A
C3314      C3315   1.515       .  S
C3315      F3319   1.380       .  S
C3315      F3320   1.382       .  S
C3315      F3321   1.383       .  S
C3318      F3322   1.379       .  S
C3318      F3323   1.378       .  S
C3318      F3324   1.384       .  S
C3325      C3326   1.417       .  A
C3325      C3330   1.395       .  A
C3325      H3332   1.054       .  S
C3326      C3327   1.436       .  A
C3327      C3328   1.420       .  A
C3327      C3334   1.506       .  S
C3328      C3329   1.406       .  A
C3328      H3333   1.085       .  S
C3329      C3330   1.420       .  A
C3330      C3331   1.532       .  S
C3331      F3335   1.386       .  S
C3331      F3336   1.376       .  S
C3331      F3337   1.372       .  S
C3334      F3338   1.359       .  S
C3334      F3339   1.382       .  S
C3334      F3340   1.382       .  S
C3341      C3342   1.411       .  A
C3341      C3346   1.425       .  A
C3341      H3348   1.081       .  S
C3342      C3343   1.407       .  A
C3343      C3344   1.395       .  A
C3343      C3350   1.518       .  S
C3344      C3345   1.429       .  A
C3344      H3349   1.077       .  S
C3345      C3346   1.424       .  A
C3346      C3347   1.517       .  S
C3347      F3351   1.377       .  S
C3347      F3352   1.374       .  S
C3347      F3353   1.381       .  S
C3350      F3354   1.382       .  S
C3350      F3355   1.380       .  S
C3350      F3356   1.381       .  S
C3357      C3358   1.406       .  A
C3357      C3362   1.415       .  A
C3357      H3364   1.083       .  S
C3358      C3359   1.419       .  A
C3359      C3360   1.392       .  A
C3359      C3366   1.523       .  S
C3360      C3361   1.407       .  A
C3360      H3365   1.083       .  S
C3361      C3362   1.435       .  A
C3362      C3363   1.516       .  S
C3363      F3367   1.384       .  S
C3363      F3368   1.380       .  S
C3363      F3369   1.378       .  S
C3366      F3370   1.365       .  S
C3366      F3371   1.383       .  S
C3366      F3372   1.380       .  S
C3373      C3374   1.394       .  A
C3373      C3378   1.410       .  A
C3373      H3380   1.076       .  S
C3374      C3375   1.434       .  A
C3375      C3376   1.421       .  A
C3375      C3382   1.508       .  S
C3376      C3377   1.408       .  A
C3376      H3381   1.079       .  S
C3377      C3378   1.452       .  A
C3378      C3379   1.530       .  S
C3379      F3383   1.385       .  S
C3379      F3384   1.378       .  S
C3379      F3385   1.371       .  S
C3382      F3386   1.360       .  S
C3382      F3387   1.384       .  S
C3382      F3388   1.383       .  S
C3389      C3390   1.418   1_545  A
C3389      C3394   1.426       .  A
C3389      H3396   1.064       .  S
C3390      C3391   1.450       .  A
C3391      C3392   1.420   1_565  A
C3391      C3398   1.521       .  S
C3392      C3393   1.398       .  A
C3392      H3397   1.073       .  S
C3393      C3394   1.418       .  A
C3394      C3395   1.513       .  S
C3395      F3399   1.383       .  S
C3395      F3400   1.382       .  S
C3395      F3401   1.383       .  S
C3398      F3402   1.354       .  S
C3398      F3403   1.378       .  S
C3398      F3404   1.381       .  S
C3405      C3406   1.410   1_545  A
C3405      C3410   1.414       .  A
C3405      H3412   1.082   1_545  S
C3406      C3407   1.431   1_565  A
C3407      C3408   1.437       .  A
C3407      C3414   1.515       .  S
C3408      C3409   1.421       .  A
C3408      H3413   1.081       .  S
C3409      C3410   1.430       .  A
C3410      C3411   1.517       .  S
C3411      F3415   1.382       .  S
C3411      F3416   1.376       .  S
C3411      F3417   1.382       .  S
C3414      F3418   1.377       .  S
C3414      F3419   1.382   1_545  S
C3414      F3420   1.383       .  S
C3421      C3422   1.406       .  A
C3421      C3426   1.413       .  A
C3421      H3428   1.082       .  S
C3422      C3423   1.434       .  A
C3423      C3424   1.427       .  A
C3423      C3430   1.514       .  S
C3424      C3425   1.412       .  A
C3424      H3429   1.066       .  S
C3425      C3426   1.427       .  A
C3426      C3427   1.514       .  S
C3427      F3431   1.375       .  S
C3427      F3432   1.382       .  S
C3427      F3433   1.383       .  S
C3430      F3434   1.381       .  S
C3430      F3435   1.370       .  S
C3430      F3436   1.385       .  S
C3437      C3438   1.397       .  A
C3437      C3442   1.394   1_655  A
C3437      H3444   1.073       .  S
C3438      C3439   1.444   1_655  A
C3439      C3440   1.440       .  A
C3439      C3446   1.504       .  S
C3440      C3441   1.413       .  A
C3440      H3445   1.083       .  S
C3441      C3442   1.397       .  A
C3442      C3443   1.492   1_455  S
C3443      F3447   1.374       .  S
C3443      F3448   1.371   1_655  S
C3443      F3449   1.377       .  S
C3446      F3450   1.384       .  S
C3446      F3451   1.379       .  S
C3446      F3452   1.381       .  S
C3453      C3454   1.423       .  A
C3453      C3458   1.442       .  A
C3453      H3460   1.081       .  S
C3454      C3455   1.422       .  A
C3455      C3456   1.399       .  A
C3455      C3462   1.518       .  S
C3456      C3457   1.407       .  A
C3456      H3461   1.073       .  S
C3457      C3458   1.439       .  A
C3458      C3459   1.511       .  S
C3459      F3463   1.380       .  S
C3459      F3464   1.385       .  S
C3459      F3465   1.378       .  S
C3462      F3466   1.377       .  S
C3462      F3467   1.377       .  S
C3462      F3468   1.386       .  S
C3469      C3470   1.400       .  A
C3469      C3474   1.409   1_655  A
C3469      H3476   1.086       .  S
C3470      C3471   1.430   1_655  A
C3471      C3472   1.426       .  A
C3471      C3478   1.508       .  S
C3472      C3473   1.414       .  A
C3472      H3477   1.082       .  S
C3473      C3474   1.430       .  A
C3474      C3475   1.507       .  S
C3475      F3479   1.385       .  S
C3475      F3480   1.365       .  S
C3475      F3481   1.378       .  S
C3478      F3482   1.378   1_455  S
C3478      F3483   1.376       .  S
C3478      F3484   1.385       .  S
C3485      C3486   1.404       .  A
C3485      C3490   1.424       .  A
C3485      H3492   1.083       .  S
C3486      C3487   1.433       .  A
C3487      C3488   1.436       .  A
C3487      C3494   1.516       .  S
C3488      C3489   1.414       .  A
C3488      H3493   1.083       .  S
C3489      C3490   1.441       .  A
C3490      C3491   1.516       .  S
C3491      F3495   1.385       .  S
C3491      F3496   1.379       .  S
C3491      F3497   1.382       .  S
C3494      F3498   1.384       .  S
C3494      F3499   1.383       .  S
C3494      F3500   1.378       .  S
C3501      C3502   1.405       .  A
C3501      C3506   1.397       .  A
C3501      H3508   1.082       .  S
C3502      C3503   1.448       .  A
C3503      C3504   1.449       .  A
C3503      C3510   1.529       .  S
C3504      C3505   1.424       .  A
C3504      H3509   1.080       .  S
C3505      C3506   1.424       .  A
C3506      C3507   1.514       .  S
C3507      F3511   1.383       .  S
C3507      F3512   1.378       .  S
C3507      F3513   1.369   1_556  S
C3510      F3514   1.377       .  S
C3510      F3515   1.359       .  S
C3510      F3516   1.382       .  S
C3517      C3518   1.406       .  A
C3517      C3522   1.412       .  A
C3517      H3524   1.085       .  S
C3518      C3519   1.431       .  A
C3519      C3520   1.431       .  A
C3519      C3526   1.519       .  S
C3520      C3521   1.422       .  A
C3520      H3525   1.080       .  S
C3521      C3522   1.435       .  A
C3522      C3523   1.522   1_554  S
C3523      F3527   1.379       .  S
C3523      F3528   1.371       .  S
C3523      F3529   1.381   1_556  S
C3526      F3530   1.381       .  S
C3526      F3531   1.375       .  S
C3526      F3532   1.383       .  S
C3533      C3534   1.402       .  A
C3533      C3538   1.407       .  A
C3533      H3540   1.080       .  S
C3534      C3535   1.435       .  A
C3535      C3536   1.425       .  A
C3535      C3542   1.517       .  S
C3536      C3537   1.413       .  A
C3536      H3541   1.082       .  S
C3537      C3538   1.427       .  A
C3538      C3539   1.507       .  S
C3539      F3543   1.384       .  S
C3539      F3544   1.374       .  S
C3539      F3545   1.373       .  S
C3542      F3546   1.376       .  S
C3542      F3547   1.372       .  S
C3542      F3548   1.385       .  S
C3549      C3550   1.418       .  A
C3549      C3554   1.418       .  A
C3549      H3556   1.079       .  S
C3550      C3551   1.429       .  A
C3551      C3552   1.414       .  A
C3551      C3558   1.516       .  S
C3552      C3553   1.406       .  A
C3552      H3557   1.082       .  S
C3553      C3554   1.414       .  A
C3554      C3555   1.512       .  S
C3555      F3559   1.370       .  S
C3555      F3560   1.367       .  S
C3555      F3561   1.383       .  S
C3558      F3562   1.384       .  S
C3558      F3563   1.383   1_556  S
C3558      F3564   1.382   1_556  S
C3565      C3566   1.409       .  A
C3565      C3570   1.399       .  A
C3565      H3572   1.083       .  S
C3566      C3567   1.435       .  A
C3567      C3568   1.417       .  A
C3567      C3574   1.510       .  S
C3568      C3569   1.404       .  A
C3568      H3573   1.081       .  S
C3569      C3570   1.425       .  A
C3570      C3571   1.520       .  S
C3571      F3575   1.382       .  S
C3571      F3576   1.364       .  S
C3571      F3577   1.380       .  S
C3574      F3578   1.376       .  S
C3574      F3579   1.370       .  S
C3574      F3580   1.385       .  S
C3581      C3582   1.391       .  A
C3581      C3586   1.406       .  A
C3581      H3588   1.085       .  S
C3582      C3583   1.410       .  A
C3583      C3584   1.401       .  A
C3583      C3590   1.532       .  S
C3584      C3585   1.416       .  A
C3584      H3589   1.056       .  S
C3585      C3586   1.427       .  A
C3586      C3587   1.486       .  S
C3587      F3591   1.386       .  S
C3587      F3592   1.379       .  S
C3587      F3593   1.379       .  S
C3590      F3594   1.383       .  S
C3590      F3595   1.368       .  S
C3590      F3596   1.370       .  S
C3597      C3598   1.417       .  A
C3597      C3602   1.416       .  A
C3597      H3604   1.079       .  S
C3598      C3599   1.414       .  A
C3599      C3600   1.403       .  A
C3599      C3606   1.513       .  S
C3600      C3601   1.416       .  A
C3600      H3605   1.063       .  S
C3601      C3602   1.439       .  A
C3602      C3603   1.525       .  S
C3603      F3607   1.376       .  S
C3603      F3608   1.362       .  S
C3603      F3609   1.370       .  S
C3606      F3610   1.384       .  S
C3606      F3611   1.376       .  S
C3606      F3612   1.382       .  S
C3613      C3614   1.408       .  A
C3613      C3618   1.408       .  A
C3613      H3620   1.062       .  S
C3614      C3615   1.413       .  A
C3615      C3616   1.410       .  A
C3615      C3622   1.514       .  S
C3616      C3617   1.418       .  A
C3616      H3621   1.066       .  S
C3617      C3618   1.413       .  A
C3618      C3619   1.516       .  S
C3619      F3623   1.382       .  S
C3619      F3624   1.381       .  S
C3619      F3625   1.383       .  S
C3622      F3626   1.383       .  S
C3622      F3627   1.381       .  S
C3622      F3628   1.382       .  S
C3629      C3630   1.416       .  A
C3629      C3634   1.424       .  A
C3629      H3636   1.085       .  S
C3630      C3631   1.415       .  A
C3631      C3632   1.396       .  A
C3631      C3638   1.528       .  S
C3632      C3633   1.418       .  A
C3632      H3637   1.077       .  S
C3633      C3634   1.434       .  A
C3634      C3635   1.512       .  S
C3635      F3639   1.384       .  S
C3635      F3640   1.372       .  S
C3635      F3641   1.378       .  S
C3638      F3642   1.382       .  S
C3638      F3643   1.377       .  S
C3638      F3644   1.382       .  S
C3645      C3646   1.425       .  A
C3645      C3650   1.438       .  A
C3645      H3652   1.078       .  S
C3646      C3647   1.404       .  A
C3647      C3648   1.379       .  A
C3647      C3654   1.498       .  S
C3648      C3649   1.395       .  A
C3648      H3653   1.078       .  S
C3649      C3650   1.428       .  A
C3650      C3651   1.513       .  S
C3651      F3655   1.378       .  S
C3651      F3656   1.379       .  S
C3651      F3657   1.383       .  S
C3654      F3658   1.375       .  S
C3654      F3659   1.381       .  S
C3654      F3660   1.378       .  S
C3661      C3662   1.417       .  A
C3661      C3666   1.388       .  A
C3661      H3668   1.059       .  S
C3662      C3663   1.442       .  A
C3663      C3664   1.425       .  A
C3663      C3670   1.526       .  S
C3664      C3665   1.412       .  A
C3664      H3669   1.083       .  S
C3665      C3666   1.407       .  A
C3666      C3667   1.521       .  S
C3667      F3671   1.380       .  S
C3667      F3672   1.368       .  S
C3667      F3673   1.382       .  S
C3670      F3674   1.377       .  S
C3670      F3675   1.373       .  S
C3670      F3676   1.378       .  S
C3677      C3678   1.411       .  A
C3677      C3682   1.398       .  A
C3677      H3684   1.073       .  S
C3678      C3679   1.458       .  A
C3679      C3680   1.424       .  A
C3679      C3686   1.521       .  S
C3680      C3681   1.397       .  A
C3680      H3685   1.082       .  S
C3681      C3682   1.418       .  A
C3682      C3683   1.515       .  S
C3683      F3687   1.385       .  S
C3683      F3688   1.371       .  S
C3683      F3689   1.382       .  S
C3686      F3690   1.376       .  S
C3686      F3691   1.363       .  S
C3686      F3692   1.386       .  S
C3693      C3694   1.421       .  A
C3693      C3698   1.418       .  A
C3693      H3700   1.078       .  S
C3694      C3695   1.415       .  A
C3695      C3696   1.396       .  A
C3695      C3702   1.509       .  S
C3696      C3697   1.399       .  A
C3696      H3701   1.078       .  S
C3697      C3698   1.424       .  A
C3698      C3699   1.516       .  S
C3699      F3703   1.383       .  S
C3699      F3704   1.383       .  S
C3699      F3705   1.382       .  S
C3702      F3706   1.371       .  S
C3702      F3707   1.378       .  S
C3702      F3708   1.378       .  S
C3709      C3710   1.413       .  A
C3709      C3714   1.413       .  A
C3709      H3716   1.084       .  S
C3710      C3711   1.416       .  A
C3711      C3712   1.400       .  A
C3711      C3718   1.521       .  S
C3712      C3713   1.409       .  A
C3712      H3717   1.070       .  S
C3713      C3714   1.433       .  A
C3714      C3715   1.530       .  S
C3715      F3719   1.386       .  S
C3715      F3720   1.381       .  S
C3715      F3721   1.372       .  S
C3718      F3722   1.383       .  S
C3718      F3723   1.377       .  S
C3718      F3724   1.382       .  S
C3725      C3726   1.419       .  A
C3725      C3730   1.421       .  A
C3725      H3732   1.075       .  S
C3726      C3727   1.437       .  A
C3727      C3728   1.381       .  A
C3727      C3734   1.525       .  S
C3728      C3729   1.391       .  A
C3728      H3733   1.081       .  S
C3729      C3730   1.426       .  A
C3730      C3731   1.523       .  S
C3731      F3735   1.381       .  S
C3731      F3736   1.369       .  S
C3731      F3737   1.383       .  S
C3734      F3738   1.380       .  S
C3734      F3739   1.369       .  S
C3734      F3740   1.385       .  S
C3741      C3742   1.416       .  A
C3741      C3746   1.429       .  A
C3741      H3748   1.082       .  S
C3742      C3743   1.444       .  A
C3743      C3744   1.383       .  A
C3743      C3750   1.530       .  S
C3744      C3745   1.391       .  A
C3744      H3749   1.085       .  S
C3745      C3746   1.434       .  A
C3746      C3747   1.516       .  S
C3747      F3751   1.379       .  S
C3747      F3752   1.378       .  S
C3747      F3753   1.380       .  S
C3750      F3754   1.376       .  S
C3750      F3755   1.377       .  S
C3750      F3756   1.382       .  S
