geometry optimzed in LAMMPS
_audit_creation_date              2020-11-30 
_audit_creation_method            'lammps2cif' 
_symmetry_space_group_name_H-M    'P1' 
_symmetry_Int_Tables_number       1 
_symmetry_cell_setting            triclinic 
loop_ 
_symmetry_equiv_pos_as_xyz 
  x,y,z 
_cell_length_a                    51.12733996892355 
_cell_length_b                    50.77130821501672 
_cell_length_c                    51.181739568949986 
_cell_angle_alpha                 90.07586660303106 
_cell_angle_beta                  89.8820701222445 
_cell_angle_gamma                 89.81516347338278 
loop_ 
_atom_site_label 
_atom_site_type_symbol 
_atom_site_fract_x 
_atom_site_fract_y 
_atom_site_fract_z 
_atom_site_charge 
C1          C  0.65936192  0.69343679  0.92556645     0.03420
C2          C  0.67175554  0.70855868  0.90611070    -0.12730
C3          C  0.69568145  0.69999582  0.89510285     0.00920
C4          C  0.70726009  0.67648512  0.90408032    -0.11250
C5          C  0.69492577  0.66126312  0.92338135     0.03410
C6          C  0.67033742  0.66908356  0.93256219    -0.10680
H7          H  0.66396088  0.72770826  0.90092300     0.09010
H8          H  0.72628586  0.67058666  0.89672179     0.06540
H9          H  0.66104475  0.65759333  0.94780129     0.06380
C10         C  0.85791982  0.71171421  0.72009559     0.03420
C11         C  0.86728173  0.72433806  0.69766272    -0.12730
C12         C  0.88631660  0.71218611  0.68207322     0.00920
C13         C  0.89540126  0.68696026  0.68847218    -0.11250
C14         C  0.88652108  0.67423823  0.71110474     0.03410
C15         C  0.86765825  0.68676036  0.72690504    -0.10680
H16         H  0.86108387  0.74430736  0.69334443     0.09010
H17         H  0.91140288  0.67847224  0.67732492     0.06540
H18         H  0.86133757  0.67759326  0.74494962     0.06380
C19         C  0.69366600  0.88449708  0.73827045     0.03420
C20         C  0.66779749  0.89043003  0.74566181    -0.12730
C21         C  0.65481304  0.91227086  0.73473502     0.00920
C22         C  0.66758698  0.92699568  0.71545428    -0.11250
C23         C  0.69311472  0.92099159  0.70768530     0.03410
C24         C  0.70620930  0.89971539  0.71914890    -0.10680
H25         H  0.65832822  0.87871034  0.76057781     0.09010
H26         H  0.65814785  0.94424675  0.70725594     0.06540
H27         H  0.72632584  0.89549248  0.71383974     0.06380
C28         C  0.77565289  0.75559710  0.80849821     0.02580
C29         C  0.75196349  0.76453298  0.81980208     0.02580
C30         C  0.74059941  0.78820158  0.81061076     0.02580
C31         C  0.75153770  0.80145442  0.78886919     0.02580
C32         C  0.77525101  0.79254141  0.77776729     0.02580
C33         C  0.78624542  0.76865949  0.78657283     0.02580
C34         C  0.38336844  0.37993572  0.94816362     0.03420
C35         C  0.37269968  0.36526421  0.92769941    -0.12730
C36         C  0.35164537  0.37549812  0.91344069     0.00920
C37         C  0.34104754  0.40018923  0.91990788    -0.11250
C38         C  0.35199309  0.41484948  0.94025821     0.03410
C39         C  0.37350210  0.40492044  0.95388651    -0.10680
H40         H  0.38021689  0.34574092  0.92338608     0.09010
H41         H  0.32379137  0.40740914  0.90992513     0.06540
H42         H  0.38113616  0.41571224  0.97050959     0.06380
C43         C  0.87986561  0.35750309  0.39237117     0.03420
C44         C  0.89487172  0.37913822  0.38426684    -0.12730
C45         C  0.91150403  0.39191855  0.40197194     0.00920
C46         C  0.91339427  0.38262949  0.42761257    -0.11250
C47         C  0.89904906  0.36063539  0.43589941     0.03410
C48         C  0.88164106  0.34864344  0.41832267    -0.10680
H49         H  0.89351205  0.38606052  0.36429478     0.09010
H50         H  0.92741807  0.39167178  0.44067898     0.06540
H51         H  0.87017292  0.33184470  0.42446910     0.06380
C52         C  0.39998632  0.91496005  0.38905562     0.03420
C53         C  0.38312134  0.89797606  0.37576978    -0.12730
C54         C  0.36124172  0.88708787  0.38855091     0.00920
C55         C  0.35560098  0.89481196  0.41455442    -0.11250
C56         C  0.37255493  0.91207194  0.42788249     0.03410
C57         C  0.39596852  0.91954013  0.41560114    -0.10680
H58         H  0.38679134  0.89376797  0.35533753     0.09010
H59         H  0.33731405  0.88892420  0.42346596     0.06540
H60         H  0.40931266  0.93256625  0.42573922     0.06380
C61         C  0.85526430  0.91492089  0.43412817     0.03420
C62         C  0.87579855  0.90210554  0.44694809    -0.12730
C63         C  0.88389483  0.87687726  0.43974879     0.00920
C64         C  0.87170520  0.86413216  0.41868802    -0.11250
C65         C  0.85082570  0.87649559  0.40544100     0.03410
C66         C  0.84283866  0.90202091  0.41315439    -0.10680
H67         H  0.88477729  0.91121126  0.46387156     0.09010
H68         H  0.87743859  0.84421255  0.41357540     0.06540
H69         H  0.82676408  0.91152518  0.40310980     0.06380
C70         C  0.84057127  0.86449967  0.71875302     0.03420
C71         C  0.86439035  0.85437568  0.70939436    -0.12730
C72         C  0.88209016  0.87085576  0.69656081     0.00920
C73         C  0.87673403  0.89775897  0.69502955    -0.11250
C74         C  0.85136303  0.90762402  0.70002742     0.03410
C75         C  0.83340421  0.89067392  0.71269261    -0.10680
H76         H  0.86876595  0.83357043  0.71138677     0.09010
H77         H  0.89169753  0.91030276  0.68682175     0.06540
H78         H  0.81372897  0.89708391  0.71711016     0.06380
C79         C  0.87660909  0.42442526  0.86828997     0.03420
C80         C  0.87233997  0.43464744  0.89324290    -0.12730
C81         C  0.85038170  0.42729643  0.90786740     0.00920
C82         C  0.83348286  0.40791633  0.89796007    -0.11250
C83         C  0.83797503  0.39695200  0.87304246     0.03410
C84         C  0.85944252  0.40562799  0.85812081    -0.10680
H85         H  0.88524225  0.44988085  0.90056281     0.09010
H86         H  0.81602363  0.40264871  0.90875377     0.06540
H87         H  0.86249439  0.39816000  0.83849334     0.06380
C88         C  0.87656294  0.65353932  0.87042866     0.03420
C89         C  0.86976532  0.64794157  0.89629062    -0.12730
C90         C  0.84730487  0.65897661  0.90747787     0.00920
C91         C  0.83209970  0.67677542  0.89299527    -0.11250
C92         C  0.83924505  0.68308971  0.86725083     0.03410
C93         C  0.86128151  0.67118307  0.85590782    -0.10680
H94         H  0.88066702  0.63311455  0.90698486     0.09010
H95         H  0.81429911  0.68487063  0.90134020     0.06540
H96         H  0.86628596  0.67532203  0.83573513     0.06380
C97         C  0.18426665  0.87404158  0.45422006     0.03420
C98         C  0.20012441  0.89307940  0.46557967    -0.12730
C99         C  0.22443568  0.89881498  0.45512019     0.00920
C100        C  0.23269774  0.88633741  0.43217946    -0.11250
C101        C  0.21580476  0.86913730  0.41835229     0.03410
C102        C  0.19137445  0.86298374  0.43002139    -0.10680
H103        H  0.19400442  0.90270483  0.48353266     0.09010
H104        H  0.25255901  0.88972803  0.42589662     0.06540
H105        H  0.17804871  0.84920616  0.42112936     0.06380
C106        C  0.18592354  0.86459563  0.68290204     0.03420
C107        C  0.19837885  0.88763550  0.67491028    -0.12730
C108        C  0.22460487  0.89213009  0.68096338     0.00920
C109        C  0.23800721  0.87430992  0.69699344    -0.11250
C110        C  0.22541314  0.85153572  0.70619391     0.03410
C111        C  0.19931009  0.84661542  0.69888094    -0.10680
H112        H  0.18837426  0.90085350  0.66157728     0.09010
H113        H  0.25850521  0.87749308  0.70129607     0.06540
H114        H  0.19013039  0.82813912  0.70408967     0.06380
O115        O  0.98222269  0.75766369  0.62010397    -0.75000
O116        O  0.95185002  0.77677634  0.59355345    -0.53910
C117        C  0.95852222  0.76291573  0.61341384     0.78730
O118        O  0.07366632  0.84837480  0.62429874    -0.59600
O119        O  0.10257272  0.82773287  0.59741350    -0.52630
C120        C  0.09709974  0.84155761  0.61759215     0.70740
O121        O  0.98601238  0.84578067  0.62693850    -0.74160
O122        O  0.95437405  0.82952202  0.60027548    -0.54720
C123        C  0.96196909  0.84080524  0.62156045     0.76750
O124        O  0.07038979  0.75090776  0.61680249    -0.59300
O125        O  0.10213945  0.77305786  0.59489936    -0.52420
C126        C  0.09454049  0.75621318  0.61201592     0.73340
Zr127      Zr  0.02651837  0.76350932  0.60352323     2.54710
O128        O  0.02767820  0.75626920  0.65049214    -0.79870
O129        O  0.02262904  0.71622374  0.59660841    -0.93290
Zr130      Zr  0.02904492  0.84237992  0.60668419     2.64680
O131        O  0.02852788  0.85150903  0.65345543    -0.98240
O132        O  0.02785161  0.88990357  0.60059449    -0.80300
O133        O  0.00317056  0.80365872  0.60506063    -0.83660
O134        O  0.05234612  0.80200613  0.60622433    -2.18370
O135        O  0.07364052  0.75511716  0.51279163    -0.67050
O136        O  0.10360680  0.77710938  0.53746469    -0.51610
C137        C  0.09727325  0.76149659  0.51889136     0.71720
O138        O  0.98610532  0.84700920  0.50780273    -0.59960
O139        O  0.95446076  0.83260296  0.53550767    -0.51930
C140        C  0.96194620  0.84300733  0.51388991     0.73520
O141        O  0.07272115  0.85154102  0.51194557    -0.71350
O142        O  0.10211336  0.83023019  0.53784747    -0.50030
C143        C  0.09617652  0.84468240  0.51814589     0.74910
O144        O  0.98518530  0.76060805  0.51070706    -0.66680
O145        O  0.95287300  0.77905758  0.53518546    -0.53880
C146        C  0.96103413  0.76491659  0.51590796     0.73290
Zr147      Zr  0.02883545  0.76609247  0.52704869     2.77540
O148        O  0.02935059  0.76194652  0.47962026    -0.97430
O149        O  0.02582818  0.71840352  0.53068191    -0.78250
Zr150      Zr  0.02873863  0.84506592  0.52979593     2.70070
O151        O  0.03013385  0.86359294  0.48596312    -0.79500
O152        O  0.02589281  0.89130174  0.54214605    -0.98580
Zr153      Zr  0.97784125  0.80528577  0.56622483     2.21500
Zr154      Zr  0.07751537  0.80281052  0.56711242     2.11130
O155        O  0.05322963  0.80516497  0.52762603    -2.47270
O156        O  0.00411887  0.80578333  0.52777434    -0.79290
O157        O  0.05342302  0.76296515  0.56578357    -0.71490
O158        O  0.00253754  0.84531357  0.56829328    -2.32440
O159        O  0.00165096  0.76468389  0.56470875    -2.28650
O160        O  0.05497383  0.84402159  0.56820390    -0.73250
H161        H  0.06316430  0.80068548  0.62160016     0.78750
H162        H  0.99110226  0.86049365  0.56889194     0.79840
H163        H  0.06417346  0.80479558  0.51225670     0.82060
H164        H  0.98993462  0.74981422  0.56392219     0.79670
H165        H  0.01022955  0.89522632  0.60673025     0.42700
H166        H  0.04389554  0.89803929  0.53978797     0.41680
H167        H  0.03114272  0.84808507  0.47424061     0.41350
H168        H  0.04293003  0.77444333  0.47364976     0.39290
H169        H  0.04344218  0.71274789  0.53645112     0.42420
H170        H  0.00358091  0.71295938  0.59551532     0.37200
H171        H  0.02542199  0.77406784  0.65812338     0.43320
H172        H  0.03971654  0.83773994  0.66140880     0.39730
H173        H  0.03685870  0.74427801  0.47615626     0.44650
H174        H  0.02790213  0.70834878  0.61349081     0.43380
H175        H  0.03836046  0.86812910  0.65567854     0.43510
H176        H  0.01571362  0.89963517  0.52792899     0.43870
C177        C  0.36578698  0.69730212  0.89303181     0.03420
C178        C  0.38979296  0.70548981  0.90402443    -0.12730
C179        C  0.40233297  0.68949763  0.92277064     0.00920
C180        C  0.39145736  0.66506798  0.92908146    -0.11250
C181        C  0.36635514  0.65861862  0.92094098     0.03410
C182        C  0.35381079  0.67426589  0.90230741    -0.10680
H183        H  0.39786316  0.72452918  0.89900943     0.09010
H184        H  0.40061105  0.65311838  0.94410070     0.06540
H185        H  0.33409780  0.66941606  0.89623803     0.06380
C186        C  0.37349091  0.86824272  0.72929296     0.03420
C187        C  0.39559682  0.87878302  0.74191728    -0.12730
C188        C  0.41024709  0.89863027  0.72970164     0.00920
C189        C  0.40371540  0.90664326  0.70450244    -0.11250
C190        C  0.38072160  0.89798379  0.69276919     0.03410
C191        C  0.36572227  0.87843129  0.70493774    -0.10680
H192        H  0.40017644  0.87296574  0.76175858     0.09010
H193        H  0.41428231  0.92293972  0.69575354     0.06540
H194        H  0.34737719  0.87230936  0.69630618     0.06380
C195        C  0.31958115  0.77882444  0.80484725     0.02580
C196        C  0.30985705  0.79018757  0.78155922     0.02580
C197        C  0.28659628  0.78047381  0.77017927     0.02580
C198        C  0.27493949  0.75732213  0.78016994     0.02580
C199        C  0.28452398  0.74593522  0.80354842     0.02580
C200        C  0.30763232  0.75593540  0.81521265     0.02580
C201        C  0.19624203  0.70395137  0.71845011     0.03420
C202        C  0.18573551  0.71560398  0.69576135    -0.12730
C203        C  0.16713575  0.70194452  0.68077469     0.00920
C204        C  0.16154020  0.67575790  0.68712630    -0.11250
C205        C  0.16922864  0.66533067  0.71113006     0.03410
C206        C  0.18702018  0.67922408  0.72667029    -0.10680
H207        H  0.19071824  0.73573846  0.69089353     0.09010
H208        H  0.14752218  0.66492295  0.67545971     0.06540
H209        H  0.19280647  0.67138478  0.74548546     0.06380
O210        O  0.98015986  0.59330404  0.83041435    -0.75000
O211        O  0.94969947  0.56824878  0.80977467    -0.53910
C212        C  0.95639597  0.58730314  0.82486804     0.78730
O213        O  0.06768260  0.59584599  0.73568554    -0.59600
O214        O  0.09836216  0.57000692  0.75537634    -0.52630
C215        C  0.09149240  0.59008476  0.74182885     0.70740
O216        O  0.97943530  0.59726949  0.73790741    -0.74160
O217        O  0.94871004  0.57070619  0.75653727    -0.54720
C218        C  0.95569144  0.59124971  0.74371456     0.76750
O219        O  0.06793848  0.59394927  0.83049729    -0.59300
O220        O  0.09779192  0.56812332  0.80935500    -0.52420
C221        C  0.09156203  0.58722536  0.82460620     0.73340
Zr222      Zr  0.02396175  0.57712092  0.82125200     2.54710
O223        O  0.02335360  0.62454904  0.82815081    -0.79870
O224        O  0.02427849  0.56994260  0.86826773    -0.93290
Zr225      Zr  0.02334451  0.57862521  0.74250075     2.64680
O226        O  0.02072648  0.62550840  0.73277877    -0.98240
O227        O  0.02287987  0.57150100  0.69546380    -0.80300
O228        O  0.99916888  0.57840355  0.78209566    -0.83660
O229        O  0.04790072  0.57917365  0.78179823    -2.18370
O230        O  0.06881318  0.48332056  0.82858546    -0.67050
O231        O  0.09802093  0.50983414  0.80771059    -0.51610
C232        C  0.09226890  0.49041683  0.82268429     0.71720
O233        O  0.98000098  0.48027451  0.74084118    -0.59960
O234        O  0.94907253  0.50972644  0.75445854    -0.51930
C235        C  0.95601127  0.48736775  0.74504254     0.73520
O236        O  0.06947677  0.48605549  0.73221780    -0.71350
O237        O  0.09879477  0.51223668  0.75361144    -0.50030
C238        C  0.09295121  0.49299744  0.73867034     0.74910
O239        O  0.98065822  0.48099987  0.82580438    -0.66680
O240        O  0.95009531  0.50738566  0.80688969    -0.53880
C241        C  0.95681951  0.48708687  0.82029284     0.73290
Zr242      Zr  0.02436824  0.49910122  0.81929930     2.77540
O243        O  0.02416494  0.45130066  0.82358697    -0.97430
O244        O  0.02269876  0.50386788  0.86660114    -0.78250
Zr245      Zr  0.02391395  0.50077177  0.74093981     2.70070
O246        O  0.02629817  0.45457886  0.72834130    -0.79500
O247        O  0.01896642  0.50914454  0.69439308    -0.98580
Zr248      Zr  0.97417858  0.53916666  0.78131938     2.21500
Zr249      Zr  0.07291923  0.53970662  0.78107875     2.11130
O250        O  0.04885700  0.49958067  0.77999625    -2.47270
O251        O  0.99957841  0.49989069  0.78032651    -0.79290
O252        O  0.04975110  0.53822572  0.82129773    -0.71490
O253        O  0.99770570  0.53968256  0.74090092    -2.32440
O254        O  0.99839067  0.53804000  0.82114311    -2.28650
O255        O  0.04939275  0.53989880  0.74087751    -0.73250
H256        H  0.05864584  0.59474437  0.78240343     0.78750
H257        H  0.98589649  0.53992551  0.72618728     0.79840
H258        H  0.06013915  0.48430722  0.77976541     0.82060
H259        H  0.98682399  0.53757585  0.83608551     0.79670
H260        H  0.00452855  0.57490038  0.69028585     0.42700
H261        H  0.03690085  0.51312409  0.68825467     0.41680
H262        H  0.02673523  0.44493664  0.74514415     0.41350
H263        H  0.03697548  0.44490994  0.81047839     0.39290
H264        H  0.04004768  0.51101643  0.87135427     0.42420
H265        H  0.00574500  0.56681965  0.87293546     0.37200
H266        H  0.02289603  0.63204119  0.81030189     0.43320
H267        H  0.03042515  0.63418670  0.74710965     0.39730
H268        H  0.03241212  0.44768283  0.84070351     0.44650
H269        H  0.02823877  0.58746760  0.87576078     0.43380
H270        H  0.03166927  0.62806536  0.71701126     0.43510
H271        H  0.01499935  0.49168808  0.68674917     0.43870
C272        C  0.17897130  0.43699277  0.87182469     0.03420
C273        C  0.18602468  0.44749627  0.89605553    -0.12730
C274        C  0.20860333  0.43897234  0.90888373     0.00920
C275        C  0.22362559  0.41853640  0.89807750    -0.11250
C276        C  0.21671215  0.40743839  0.87382387     0.03410
C277        C  0.19407785  0.41659960  0.86091474    -0.10680
H278        H  0.17453290  0.46340939  0.90442761     0.09010
H279        H  0.24119364  0.41207102  0.90801306     0.06540
H280        H  0.18910685  0.40897796  0.84177413     0.06380
C281        C  0.17808168  0.64729753  0.86534698     0.03420
C282        C  0.19347368  0.66457640  0.85038951    -0.12730
C283        C  0.21574272  0.67643237  0.86140487     0.00920
C284        C  0.22221883  0.67108742  0.88756334    -0.11250
C285        C  0.20702092  0.65376951  0.90259794     0.03410
C286        C  0.18495691  0.64213758  0.89134605    -0.10680
H287        H  0.18851194  0.66829074  0.83015392     0.09010
H288        H  0.23966533  0.67970932  0.89595168     0.06540
H289        H  0.17372553  0.62794594  0.90245634     0.06380
C290        C  0.41480376  0.84695577  0.90921147     0.03420
C291        C  0.39817209  0.83150086  0.89358425    -0.12730
C292        C  0.38858942  0.84128607  0.86974043     0.00920
C293        C  0.39597823  0.86657144  0.86140848    -0.11250
C294        C  0.41285716  0.88191745  0.87667449     0.03410
C295        C  0.42198904  0.87204149  0.90048078    -0.10680
H296        H  0.39268153  0.81191995  0.89992348     0.09010
H297        H  0.38906846  0.87403578  0.84282337     0.06540
H298        H  0.43609688  0.88340834  0.91148476     0.06380
C299        C  0.63907222  0.84885143  0.91233672     0.03420
C300        C  0.65793721  0.83546579  0.89745733    -0.12730
C301        C  0.66634746  0.84589594  0.87350563     0.00920
C302        C  0.65603966  0.86990809  0.86458906    -0.11250
C303        C  0.63783410  0.88361604  0.87991874     0.03410
C304        C  0.62964079  0.87319761  0.90374360    -0.10680
H305        H  0.66535753  0.81657559  0.90399346     0.09010
H306        H  0.66184359  0.87765940  0.84572954     0.06540
H307        H  0.61450098  0.88331115  0.91478869     0.06380
C308        C  0.19902146  0.72028216  0.40685832     0.03420
C309        C  0.19142174  0.72755849  0.43258724    -0.12730
C310        C  0.16756191  0.71916011  0.44326728     0.00920
C311        C  0.15228407  0.70132123  0.42952388    -0.11250
C312        C  0.15922967  0.69285948  0.40454839     0.03410
C313        C  0.18248412  0.70248430  0.39306943    -0.10680
H314        H  0.20353176  0.73983946  0.44469685     0.09010
H315        H  0.13400900  0.69469860  0.43804887     0.06540
H316        H  0.18693302  0.69689780  0.37313987     0.06380
C317        C  0.29399088  0.81565144  0.33009842     0.02580
C318        C  0.26986617  0.80658848  0.34078447     0.02580
C319        C  0.26359243  0.77956870  0.33596899     0.02580
C320        C  0.26904609  0.77033725  0.31010179     0.02580
C321        C  0.29290645  0.77922759  0.29832359     0.02580
C322        C  0.30472152  0.80258265  0.30804503     0.02580
C323        C  0.36003079  0.70774918  0.23881871     0.03420
C324        C  0.34955375  0.68329800  0.23131823    -0.12730
C325        C  0.36134811  0.66836098  0.21132336     0.00920
C326        C  0.38509788  0.67703955  0.20068966    -0.11250
C327        C  0.39614426  0.70107135  0.20817260     0.03410
C328        C  0.38352948  0.71648974  0.22722570    -0.10680
H329        H  0.33109651  0.67700288  0.23958271     0.09010
H330        H  0.39387330  0.66637033  0.18451558     0.06540
H331        H  0.39096540  0.73593755  0.23171797     0.06380
O332        O  0.31656160  0.49190736  0.02858549    -0.75000
O333        O  0.30349321  0.51921714  0.99587974    -0.53910
C334        C  0.31334309  0.49762908  0.00432650     0.78730
O335        O  0.22421464  0.49426574  0.10819894    -0.59600
O336        O  0.24139215  0.51983335  0.14045080    -0.52630
C337        C  0.22871008  0.49947587  0.13241791     0.70740
O338        O  0.23236966  0.49414764  0.02150343    -0.74160
O339        O  0.25208407  0.52195170  0.99284164    -0.54720
C340        C  0.23904982  0.50112264  0.99823826     0.76750
O341        O  0.31549234  0.49485296  0.11551902    -0.59300
O342        O  0.29352218  0.52032647  0.14516201    -0.52420
C343        C  0.30760960  0.50028274  0.13879131     0.73340
Zr344      Zr  0.31216972  0.51235303  0.07138641     2.54710
O345        O  0.32589768  0.46647921  0.07381507    -0.79870
O346        O  0.35893488  0.52116619  0.07184359    -0.93290
Zr347      Zr  0.23343221  0.51373987  0.06534411     2.64680
O348        O  0.21760657  0.46865334  0.06137832    -0.98240
O349        O  0.18742702  0.52562612  0.06180654    -0.80300
O350        O  0.27471775  0.51191228  0.04426405    -0.83660
O351        O  0.27096869  0.51215959  0.09245802    -2.18370
O352        O  0.32277743  0.60178340  0.11640885    -0.67050
O353        O  0.29635225  0.57949799  0.14490492    -0.51610
C354        C  0.31426909  0.59630777  0.13951056     0.71720
O355        O  0.23131984  0.60874815  0.02037779    -0.59960
O356        O  0.25469647  0.58246234  0.99272585    -0.51930
C357        C  0.23986711  0.60232957  0.99747025     0.73520
O358        O  0.22544365  0.61021342  0.10823621    -0.71350
O359        O  0.24161748  0.58335598  0.14012259    -0.50030
C360        C  0.22919791  0.60402570  0.13236429     0.74910
O361        O  0.32429663  0.60556665  0.02668021    -0.66680
O362        O  0.30844152  0.57714508  0.99601454    -0.53880
C363        C  0.32140904  0.59746991  0.00291647     0.73290
Zr364      Zr  0.31364463  0.58967458  0.07090507     2.77540
O365        O  0.31657595  0.63753109  0.07267321    -0.97430
O366        O  0.36110271  0.58574443  0.07138497    -0.78250
Zr367      Zr  0.23539311  0.59155668  0.06518807     2.70070
O368        O  0.22910341  0.63908233  0.06421754    -0.79500
O369        O  0.18823763  0.58606744  0.06202384    -0.98580
Zr370      Zr  0.27755884  0.55104547  0.01938255     2.21500
Zr371      Zr  0.26943898  0.55136320  0.11811591     2.11130
O372        O  0.27277168  0.59071411  0.09272879    -2.47270
O373        O  0.27638741  0.59094587  0.04348530    -0.79290
O374        O  0.31127784  0.55104698  0.09715934    -0.71490
O375        O  0.23553548  0.55248993  0.03950701    -2.32440
O376        O  0.31600766  0.55063004  0.04556080    -2.28650
O377        O  0.23124446  0.55274280  0.09122599    -0.73250
H378        H  0.27026507  0.49630166  0.10273297     0.78750
H379        H  0.22173126  0.55283928  0.02664454     0.79840
H380        H  0.27294169  0.60614296  0.10375085     0.82060
H381        H  0.33168353  0.55006862  0.03499708     0.79670
H382        H  0.18243464  0.52000265  0.04397342     0.42700
H383        H  0.18224948  0.58448320  0.08036306     0.41680
H384        H  0.24695670  0.64634603  0.06608423     0.41350
H385        H  0.30349564  0.64295576  0.08593819     0.39290
H386        H  0.36507052  0.57670262  0.08804833     0.42420
H387        H  0.36544513  0.51380916  0.05511597     0.37200
H388        H  0.30933018  0.45646098  0.07471761     0.43320
H389        H  0.22987767  0.45782886  0.07181187     0.39730
H390        H  0.33370970  0.64112979  0.08089949     0.44650
H391        H  0.36597109  0.50915032  0.08535231     0.43380
H392        H  0.20087817  0.46819019  0.07114804     0.43510
H393        H  0.18170186  0.60350621  0.05630679     0.43870
O394        O  0.97581918  0.50024940  0.37949690    -0.75000
O395        O  0.00217271  0.46975608  0.36002442    -0.53910
C396        C  0.98191492  0.47633991  0.37346807     0.78730
O397        O  0.97743097  0.59047440  0.28565528    -0.59600
O398        O  0.99946481  0.62189712  0.30879618    -0.52630
C399        C  0.98200543  0.61447745  0.29230606     0.70740
O400        O  0.97990581  0.50176842  0.28682359    -0.74160
O401        O  0.00360668  0.46910982  0.30581343    -0.54720
C402        C  0.98538020  0.47734809  0.29050371     0.76750
O403        O  0.97422016  0.58779136  0.38252900    -0.59300
O404        O  0.99786553  0.62017224  0.36285507    -0.52420
C405        C  0.97822434  0.61206895  0.37645392     0.73340
Zr406      Zr  0.99396081  0.54463511  0.37481246     2.54710
O407        O  0.94784516  0.54381129  0.38666456    -0.79870
O408        O  0.00314111  0.54294584  0.42141748    -0.93290
Zr409      Zr  0.99247936  0.54630986  0.29705394     2.64680
O410        O  0.94487520  0.54470566  0.29687632    -0.98240
O411        O  0.99444292  0.54656657  0.24950528    -0.80300
O412        O  0.99325462  0.52017414  0.33535532    -0.83660
O413        O  0.99215066  0.57052741  0.33621888    -2.18370
O414        O  0.08908779  0.59131126  0.37844470    -0.67050
O415        O  0.06195342  0.62243462  0.36112172    -0.51610
C416        C  0.08305466  0.61537211  0.37293499     0.71720
O417        O  0.08429334  0.50381662  0.28608740    -0.59960
O418        O  0.06275933  0.47033181  0.30581964    -0.51930
C419        C  0.08055175  0.47924225  0.29038311     0.73520
O420        O  0.08016825  0.59170013  0.28494576    -0.71350
O421        O  0.05838075  0.62376040  0.30707637    -0.50030
C422        C  0.07554775  0.61597873  0.29024820     0.74910
O423        O  0.09022879  0.50359745  0.37822607    -0.66680
O424        O  0.06435275  0.47181061  0.36041079    -0.53880
C425        C  0.08460481  0.47943097  0.37320158     0.73290
Zr426      Zr  0.07022277  0.54700811  0.37354488     2.77540
O427        O  0.11609319  0.54526765  0.38640751    -0.97430
O428        O  0.06090508  0.54733208  0.42019558    -0.78250
Zr429      Zr  0.06836836  0.54728023  0.29592274     2.70070
O430        O  0.11579979  0.54928786  0.29238652    -0.79500
O431        O  0.06462010  0.54607938  0.24854326    -0.98580
Zr432      Zr  0.03256429  0.49481073  0.33393550     2.21500
Zr433      Zr  0.03023480  0.59766567  0.33585277     2.11130
O434        O  0.06955490  0.57215898  0.33461423    -2.47270
O435        O  0.07058779  0.52181789  0.33435096    -0.79290
O436        O  0.03129106  0.57266393  0.37564052    -0.71490
O437        O  0.03099276  0.52048120  0.29492303    -2.32440
O438        O  0.03288057  0.51903321  0.37432715    -2.28650
O439        O  0.02999863  0.57324491  0.29597542    -0.73250
H440        H  0.97628250  0.58084038  0.33582925     0.78750
H441        H  0.03116506  0.50946515  0.27951905     0.79840
H442        H  0.08496952  0.58296025  0.33320809     0.82060
H443        H  0.03344415  0.50728393  0.38915384     0.79670
H444        H  0.00180302  0.52916963  0.24465924     0.42700
H445        H  0.05427185  0.56196704  0.24410831     0.41680
H446        H  0.12207140  0.54636608  0.31044856     0.41350
H447        H  0.12563969  0.55526250  0.37281721     0.39290
H448        H  0.06228957  0.56609095  0.42530737     0.42420
H449        H  0.99920963  0.52455803  0.42647207     0.37200
H450        H  0.93851897  0.54425328  0.36972907     0.43320
H451        H  0.93927267  0.55918888  0.30861395     0.39730
H452        H  0.11737986  0.55615827  0.40241488     0.44650
H453        H  0.98896757  0.55349772  0.42953362     0.43380
H454        H  0.93983385  0.55065558  0.27916687     0.43510
H455        H  0.08248335  0.54999391  0.24215815     0.43870
C456        C  0.19731414  0.42144563  0.20858355     0.03420
C457        C  0.17098834  0.42474195  0.21502071    -0.12730
C458        C  0.16156316  0.41705278  0.23958043     0.00920
C459        C  0.17686854  0.39979860  0.25465452    -0.11250
C460        C  0.20231475  0.39278559  0.24649371     0.03410
C461        C  0.21303294  0.40494369  0.22409023    -0.10680
H462        H  0.15887586  0.43675434  0.20238790     0.09010
H463        H  0.16980116  0.39310693  0.27346939     0.06540
H464        H  0.23342783  0.40198260  0.21906483     0.06380
C465        C  0.86871670  0.42016809  0.20790337     0.03420
C466        C  0.89476820  0.42400516  0.21481135    -0.12730
C467        C  0.90383945  0.41705193  0.23980539     0.00920
C468        C  0.88800200  0.40021385  0.25507014    -0.11250
C469        C  0.86322845  0.39230106  0.24587135     0.03410
C470        C  0.85317027  0.40341801  0.22289288    -0.10680
H471        H  0.90706395  0.43468296  0.20132813     0.09010
H472        H  0.89445037  0.39361721  0.27410364     0.06540
H473        H  0.83314389  0.39960099  0.21713393     0.06380
C474        C  0.86764479  0.66614637  0.20948541     0.03420
C475        C  0.85243318  0.68663756  0.21987695    -0.12730
C476        C  0.86070449  0.70037698  0.24230944     0.00920
C477        C  0.88517472  0.69392107  0.25341421    -0.11250
C478        C  0.90077185  0.67357369  0.24278107     0.03410
C479        C  0.89157817  0.65976431  0.22091699    -0.10680
H480        H  0.83383021  0.69127342  0.21088368     0.09010
H481        H  0.89158209  0.70395690  0.27094830     0.06540
H482        H  0.90224401  0.64280233  0.21362357     0.06380
O483        O  0.73568140  0.59799021  0.02248638    -0.75000
O484        O  0.75294496  0.57042498  0.99158540    -0.53910
C485        C  0.73952944  0.59058990  0.99862961     0.78730
O486        O  0.83452809  0.59961244  0.10662822    -0.59600
O487        O  0.81587100  0.57416009  0.13806503    -0.52630
C488        C  0.82984079  0.59381892  0.13071307     0.70740
O489        O  0.82568522  0.60208889  0.01898375    -0.74160
O490        O  0.80582228  0.57465166  0.99001467    -0.54720
C491        C  0.81844511  0.59567671  0.99570916     0.76750
O492        O  0.73850386  0.59838989  0.11137758    -0.59300
O493        O  0.76151958  0.57409724  0.14119020    -0.52420
C494        C  0.74600751  0.59303066  0.13482184     0.73340
Zr495      Zr  0.74530547  0.58187356  0.06684350     2.54710
O496        O  0.73950243  0.62946264  0.06697171    -0.79870
O497        O  0.69810055  0.57605985  0.06883625    -0.93290
Zr498      Zr  0.82369276  0.58297584  0.06293281     2.64680
O499        O  0.83095298  0.63039882  0.06196599    -0.98240
O500        O  0.87069369  0.57668647  0.05831503    -0.80300
O501        O  0.78325656  0.58240063  0.04037348    -0.83660
O502        O  0.78572621  0.58283933  0.08956426    -2.18370
O503        O  0.74240450  0.48751576  0.11190730    -0.67050
O504        O  0.76270945  0.51332851  0.14216428    -0.51610
C505        C  0.74920610  0.49312273  0.13543404     0.71720
O506        O  0.82841285  0.48581288  0.01954051    -0.59960
O507        O  0.80948716  0.51356915  0.99019057    -0.51930
C508        C  0.82266699  0.49286882  0.99607861     0.73520
O509        O  0.83462071  0.48705275  0.10598005    -0.71350
O510        O  0.81573993  0.51214280  0.13789024    -0.50030
C511        C  0.82942601  0.49225822  0.13004650     0.74910
O512        O  0.74203365  0.48450336  0.02482021    -0.66680
O513        O  0.75750806  0.51029485  0.99199502    -0.53880
C514        C  0.74624839  0.48944168  0.00054198     0.73290
Zr515      Zr  0.74666788  0.50459139  0.06763461     2.77540
O516        O  0.73531189  0.45800887  0.06636894    -0.97430
O517        O  0.69966743  0.51229242  0.06853039    -0.78250
Zr518      Zr  0.82529355  0.50561952  0.06309870     2.70070
O519        O  0.83958107  0.45985530  0.06242799    -0.79500
O520        O  0.87143779  0.51679146  0.05982323    -0.98580
Zr521      Zr  0.78254460  0.54280510  0.01571123     2.21500
Zr522      Zr  0.78772418  0.54363550  0.11531959     2.11130
O523        O  0.78722849  0.50435026  0.08968024    -2.47270
O524        O  0.78465892  0.50397512  0.04112472    -0.79290
O525        O  0.74647041  0.54342210  0.09340076    -0.71490
O526        O  0.82405676  0.54412435  0.03694222    -2.32440
O527        O  0.74358417  0.54276971  0.04139545    -2.28650
O528        O  0.82661337  0.54438055  0.08921523    -0.73250
H529        H  0.78604388  0.59845756  0.10031345     0.78750
H530        H  0.83825038  0.54434665  0.02444978     0.79840
H531        H  0.78790164  0.48856159  0.10008556     0.82060
H532        H  0.72814956  0.54226148  0.03054911     0.79670
H533        H  0.87450830  0.58172115  0.04001991     0.42700
H534        H  0.87792991  0.51582702  0.07801153     0.41680
H535        H  0.82317501  0.44958867  0.06347404     0.41350
H536        H  0.75093311  0.44879603  0.07325251     0.39290
H537        H  0.69568911  0.51616345  0.08708637     0.42420
H538        H  0.69284545  0.57244609  0.05057553     0.37200
H539        H  0.75749763  0.63649196  0.06558592     0.43320
H540        H  0.81866102  0.63781480  0.07504333     0.39730
H541        H  0.72158856  0.45548352  0.07979724     0.44650
H542        H  0.69116265  0.59392074  0.07249263     0.43380
H543        H  0.84854629  0.63300761  0.06957883     0.43510
H544        H  0.87953065  0.50144413  0.05096182     0.43870
C545        C  0.68446069  0.94008908  0.37374452     0.03420
C546        C  0.69744817  0.92085297  0.35892273    -0.12730
C547        C  0.72037106  0.90908941  0.36854267     0.00920
C548        C  0.73039754  0.91681002  0.39293435    -0.11250
C549        C  0.71680071  0.93541789  0.40799318     0.03410
C550        C  0.69373251  0.94648010  0.39856041    -0.10680
H551        H  0.69034755  0.91569754  0.33964718     0.09010
H552        H  0.74859796  0.90856804  0.40002869     0.06540
H553        H  0.68380233  0.96149237  0.41002614     0.06380
C554        C  0.89603449  0.68546135  0.40414589     0.03420
C555        C  0.89859340  0.69281645  0.43016147    -0.12730
C556        C  0.89357076  0.71887524  0.43755409     0.00920
C557        C  0.87931830  0.73503252  0.42049090    -0.11250
C558        C  0.87026241  0.72552266  0.39604895     0.03410
C559        C  0.88145920  0.70146694  0.38719871    -0.10680
H560        H  0.90933145  0.67995254  0.44322279     0.09010
H561        H  0.87786931  0.75534168  0.42577451     0.06540
H562        H  0.88024910  0.69551634  0.36696195     0.06380
C563        C  0.77313328  0.82447095  0.31486579     0.02580
C564        C  0.79433883  0.81307696  0.32890715     0.02580
C565        C  0.80224575  0.78620918  0.32330297     0.02580
C566        C  0.79378390  0.77532707  0.29867253     0.02580
C567        C  0.77125340  0.78609777  0.28624198     0.02580
C568        C  0.76162178  0.81099019  0.29374929     0.02580
C569        C  0.70720476  0.71641587  0.22387207     0.03420
C570        C  0.71830709  0.69210047  0.21656380    -0.12730
C571        C  0.70426593  0.67427315  0.20091985     0.00920
C572        C  0.67892107  0.68106556  0.19294156    -0.11250
C573        C  0.66798184  0.70568906  0.19910377     0.03410
C574        C  0.68196910  0.72315671  0.21511560    -0.10680
H575        H  0.73813872  0.68741637  0.22244149     0.09010
H576        H  0.66858341  0.66829002  0.17952263     0.06540
H577        H  0.67399632  0.74249412  0.21939534     0.06380
O578        O  0.58192235  0.81582621  0.02023158    -0.75000
O579        O  0.55689219  0.79488740  0.98989885    -0.53910
C580        C  0.57633759  0.80937377  0.99662670     0.78730
O581        O  0.58321618  0.72647834  0.11002008    -0.59600
O582        O  0.55994463  0.74780180  0.14158807    -0.52630
C583        C  0.57958849  0.73380253  0.13382416     0.70740
O584        O  0.58391573  0.72564597  0.02268541    -0.74160
O585        O  0.55904674  0.74294376  0.99026493    -0.54720
C586        C  0.57932977  0.73032544  0.99841404     0.76750
O587        O  0.57987113  0.82217165  0.10673945    -0.59300
O588        O  0.55729435  0.80081215  0.13876290    -0.52420
C589        C  0.57532243  0.81654527  0.13082468     0.73340
Zr590      Zr  0.56366860  0.81044791  0.06364890     2.54710
O591        O  0.61048527  0.81891840  0.06422867    -0.79870
O592        O  0.55511495  0.85751938  0.06028077    -0.93290
Zr593      Zr  0.56551561  0.73161054  0.06627781     2.64680
O594        O  0.61232921  0.72266289  0.06504744    -0.98240
O595        O  0.55891498  0.68416534  0.06701788    -0.80300
O596        O  0.56520601  0.77013511  0.04040947    -0.83660
O597        O  0.56552174  0.77198634  0.08950057    -2.18370
O598        O  0.47300238  0.82218132  0.10793961    -0.67050
O599        O  0.49686515  0.80076647  0.13908802    -0.51610
C600        C  0.47853715  0.81662566  0.13189336     0.71720
O601        O  0.47324176  0.72104422  0.02301930    -0.59960
O602        O  0.49785114  0.73931258  0.99079221    -0.51930
C603        C  0.47849028  0.72534746  0.99874989     0.73520
O604        O  0.47192181  0.72489342  0.11107599    -0.71350
O605        O  0.49618131  0.74621218  0.14185186    -0.50030
C606        C  0.47644842  0.73217963  0.13478021     0.74910
O607        O  0.46973400  0.81585661  0.02016354    -0.66680
O608        O  0.49476139  0.79361848  0.99041588    -0.53880
C609        C  0.47531892  0.80853029  0.99667272     0.73290
Zr610      Zr  0.48743845  0.80911076  0.06404953     2.77540
O611        O  0.43981812  0.81104333  0.06479831    -0.97430
O612        O  0.49180813  0.85670049  0.06043970    -0.78250
Zr613      Zr  0.48949478  0.73033770  0.06697416     2.70070
O614        O  0.44271778  0.72189934  0.06660030    -0.79500
O615        O  0.49702298  0.68304345  0.06922890    -0.98580
Zr616      Zr  0.52668310  0.76826918  0.01475851     2.21500
Zr617      Zr  0.52714292  0.77191286  0.11610527     2.11130
O618        O  0.48829657  0.77076746  0.09021956    -2.47270
O619        O  0.48803943  0.76869218  0.04071881    -0.79290
O620        O  0.52572423  0.81121082  0.09026100    -0.71490
O621        O  0.52744341  0.72892137  0.04034181    -2.32440
O622        O  0.52553080  0.80950059  0.03745918    -2.28650
O623        O  0.52771772  0.73072332  0.09324916    -0.73250
H624        H  0.58129679  0.77311670  0.09973246     0.78750
H625        H  0.52776556  0.71336279  0.02945129     0.79840
H626        H  0.47278741  0.77152596  0.10095848     0.82060
H627        H  0.52519863  0.82413764  0.02541781     0.79670
H628        H  0.56507215  0.67806229  0.04967620     0.42700
H629        H  0.50140984  0.67969898  0.08776690     0.41680
H630        H  0.43466391  0.73957435  0.06485788     0.41350
H631        H  0.43453501  0.79907025  0.07911129     0.39290
H632        H  0.49933751  0.86225010  0.07737585     0.42420
H633        H  0.55694060  0.86149403  0.04143187     0.37200
H634        H  0.61857246  0.80118742  0.06501591     0.43320
H635        H  0.62047828  0.73716920  0.07505553     0.39730
H636        H  0.43554119  0.82892656  0.07129979     0.44650
H637        H  0.57054258  0.86587809  0.06845663     0.43380
H638        H  0.61502515  0.70665883  0.07575159     0.43510
H639        H  0.47945627  0.67522469  0.06695706     0.43870
C640        C  0.41316839  0.86421994  0.21232150     0.03420
C641        C  0.39433729  0.84928177  0.22590930    -0.12730
C642        C  0.38060218  0.86021498  0.24714431     0.00920
C643        C  0.38566064  0.88617678  0.25490855    -0.11250
C644        C  0.40439418  0.90114705  0.24170712     0.03410
C645        C  0.41800370  0.89019071  0.22049023    -0.10680
H646        H  0.39039344  0.82915823  0.22008354     0.09010
H647        H  0.37573175  0.89437794  0.27181777     0.06540
H648        H  0.43355709  0.90143046  0.21146502     0.06380
C649        C  0.64400106  0.86563867  0.20586936     0.03420
C650        C  0.63781425  0.89158984  0.21258341    -0.12730
C651        C  0.65217427  0.90538669  0.23136415     0.00920
C652        C  0.67307359  0.89250331  0.24404870    -0.11250
C653        C  0.67899678  0.86597498  0.23813533     0.03410
C654        C  0.66439884  0.85271564  0.21897396    -0.10680
H655        H  0.62089313  0.90084691  0.20372336     0.09010
H656        H  0.68428362  0.90277692  0.25880137     0.06540
H657        H  0.66903690  0.83242838  0.21418378     0.06380
C658        C  0.67752387  0.37631446  0.19188503     0.03420
C659        C  0.68666344  0.40189982  0.18755491    -0.12730
C660        C  0.70976207  0.41059440  0.19938427     0.00920
C661        C  0.72297831  0.39406897  0.21684910    -0.11250
C662        C  0.71375073  0.36854477  0.22172408     0.03410
C663        C  0.69111878  0.35958952  0.20899746    -0.10680
H664        H  0.67720264  0.41413898  0.17298794     0.09010
H665        H  0.74146661  0.40031967  0.22509930     0.06540
H666        H  0.68458683  0.33949820  0.21177918     0.06380
C667        C  0.80232101  0.27674622  0.32937280     0.02580
C668        C  0.81146663  0.30174903  0.32167798     0.02580
C669        C  0.80086482  0.31406927  0.29926116     0.02580
C670        C  0.77922018  0.30252340  0.28630464     0.02580
C671        C  0.77043588  0.27719248  0.29361592     0.02580
C672        C  0.78149985  0.26489251  0.31570024     0.02580
C673        C  0.68670571  0.15640399  0.37148780     0.03420
C674        C  0.70221048  0.17418223  0.35769347    -0.12730
C675        C  0.72506187  0.18393778  0.36909068     0.00920
C676        C  0.73240325  0.17588153  0.39424486    -0.11250
C677        C  0.71688904  0.15781131  0.40796191     0.03410
C678        C  0.69400397  0.14830330  0.39647242    -0.10680
H679        H  0.69660329  0.18030513  0.33819705     0.09010
H680        H  0.75005743  0.18362717  0.40302919     0.06540
H681        H  0.68230887  0.13368800  0.40655202     0.06380
O682        O  0.48274309  0.98794218  0.26523128    -0.75000
O683        O  0.45123165  0.01511974  0.28194067    -0.53910
C684        C  0.45900255  0.99334688  0.27163989     0.78730
O685        O  0.57664812  0.99743985  0.34460841    -0.59600
O686        O  0.60452998  0.02293904  0.32082001    -0.52630
C687        C  0.59954009  0.00398307  0.33666190     0.70740
O688        O  0.49077922  0.99173595  0.34817334    -0.74160
O689        O  0.45645965  0.01544652  0.33254088    -0.54720
C690        C  0.46620051  0.99556086  0.34483763     0.76750
O691        O  0.56879928  0.99152992  0.25179131    -0.59300
O692        O  0.60060677  0.01817798  0.26837056    -0.52420
C693        C  0.59289791  0.99747592  0.25626999     0.73340
Zr694      Zr  0.52502641  0.00937640  0.26151433     2.54710
O695        O  0.52520865  0.96326490  0.24843896    -0.79870
O696        O  0.51743865  0.01713316  0.21523714    -0.93290
Zr697      Zr  0.53202161  0.01325291  0.33984577     2.64680
O698        O  0.53325461  0.96776305  0.35505488    -0.98240
O699        O  0.53380637  0.02553082  0.38579944    -0.80300
O700        O  0.50432840  0.01030112  0.30304373    -0.83660
O701        O  0.55268902  0.01047080  0.29849427    -2.18370
O702        O  0.56551707  0.10568568  0.24822766    -0.67050
O703        O  0.59865815  0.08076593  0.26499610    -0.51610
C704        C  0.59000737  0.10101646  0.25263139     0.71720
O705        O  0.48714831  0.10802737  0.34615424    -0.59960
O706        O  0.45532877  0.07940471  0.33331518    -0.51930
C707        C  0.46317398  0.10074946  0.34444113     0.73520
O708        O  0.57487055  0.10634459  0.34192502    -0.71350
O709        O  0.60252346  0.08090544  0.31766601    -0.50030
C710        C  0.59781421  0.09983622  0.33352535     0.74910
O711        O  0.47676030  0.10092098  0.25357356    -0.66680
O712        O  0.44894392  0.07733886  0.27953073    -0.53880
C713        C  0.45389024  0.09551431  0.26279144     0.73290
Zr714      Zr  0.52238516  0.08636372  0.25826084     2.77540
O715        O  0.51635537  0.13297262  0.24875959    -0.97430
O716        O  0.52040795  0.07758022  0.21154787    -0.78250
Zr717      Zr  0.53004143  0.09008878  0.33628026     2.70070
O718        O  0.53145993  0.13793586  0.33886970    -0.79500
O719        O  0.53199510  0.08682513  0.38367163    -0.98580
Zr720      Zr  0.47705290  0.04820018  0.30431473     2.21500
Zr721      Zr  0.57664531  0.05022946  0.29383930     2.11130
O722        O  0.55043027  0.08912234  0.29501950    -2.47270
O723        O  0.50157676  0.08773386  0.29975339    -0.79290
O724        O  0.54970124  0.04836243  0.25588269    -0.71490
O725        O  0.50485714  0.05110008  0.34174008    -2.32440
O726        O  0.49740145  0.04710842  0.26201762    -2.28650
O727        O  0.55713075  0.05210832  0.33614813    -0.73250
H728        H  0.56362963  0.99497133  0.29857713     0.78750
H729        H  0.49482152  0.05156020  0.35775301     0.79840
H730        H  0.56074124  0.10496731  0.29426571     0.82060
H731        H  0.48444175  0.04604323  0.24834626     0.79670
H732        H  0.51789702  0.01762840  0.39353236     0.42700
H733        H  0.55049304  0.08246399  0.38745133     0.41680
H734        H  0.52862603  0.14386673  0.32066669     0.41350
H735        H  0.52674492  0.14225261  0.26220578     0.39290
H736        H  0.53891811  0.07569207  0.20611537     0.42420
H737        H  0.50006301  0.00929086  0.21184984     0.37200
H738        H  0.52780772  0.95345403  0.26495013     0.43320
H739        H  0.54371591  0.95805176  0.34186590     0.39730
H740        H  0.52580165  0.13599394  0.23213474     0.44650
H741        H  0.52993437  0.00523505  0.20624754     0.43380
H742        H  0.54421254  0.96793042  0.37098433     0.43510
H743        H  0.52984868  0.10519204  0.38986194     0.43870
O744        O  0.48283680  0.34789633  0.01781968    -0.75000
O745        O  0.45096260  0.32983927  0.04294460    -0.53910
C746        C  0.45882034  0.34296147  0.02289088     0.78730
O747        O  0.56780206  0.25821433  0.01408434    -0.59600
O748        O  0.59996339  0.27594010  0.03946399    -0.52630
C749        C  0.59190501  0.26346690  0.01910671     0.70740
O750        O  0.48030169  0.26099474  0.01489921    -0.74160
O751        O  0.44922853  0.27813254  0.04216286    -0.54720
C752        C  0.45643173  0.26629338  0.02110325     0.76750
O753        O  0.56809184  0.35176839  0.01885178    -0.59300
O754        O  0.59972615  0.32909014  0.04064198    -0.52420
C755        C  0.59193293  0.34456726  0.02230840     0.73340
Zr756      Zr  0.52531209  0.34344139  0.03753902     2.54710
O757        O  0.52635910  0.35930771  0.99270240    -0.79870
O758        O  0.52279063  0.38972979  0.04973355    -0.93290
Zr759      Zr  0.52434473  0.26434541  0.03328577     2.64680
O760        O  0.52076911  0.25425381  0.98686851    -0.98240
O761        O  0.52374711  0.21698304  0.04054254    -0.80300
O762        O  0.50039786  0.30424842  0.03509128    -0.83660
O763        O  0.54915757  0.30372405  0.03381872    -2.18370
O764        O  0.57042200  0.34818745  0.12925494    -0.67050
O765        O  0.60066265  0.32789701  0.10333349    -0.51610
C766        C  0.59416208  0.34213688  0.12323884     0.71720
O767        O  0.48292764  0.25575105  0.12822626    -0.59960
O768        O  0.45077398  0.27516306  0.10417060    -0.51930
C769        C  0.45875599  0.26129942  0.12362026     0.73520
O770        O  0.57117203  0.25270543  0.12522542    -0.71350
O771        O  0.60149495  0.27324650  0.09950459    -0.50030
C772        C  0.59487988  0.25862039  0.11883532     0.74910
O773        O  0.48253288  0.34828314  0.13111625    -0.66680
O774        O  0.45162190  0.32957113  0.10514828    -0.53880
C775        C  0.45859181  0.34332655  0.12505570     0.73290
Zr776      Zr  0.52618466  0.33982301  0.11340869     2.77540
O777        O  0.52539342  0.34122652  0.16099656    -0.97430
O778        O  0.52611858  0.38767544  0.11046347    -0.78250
Zr779      Zr  0.52646345  0.26119435  0.10950475     2.70070
O780        O  0.52789244  0.25092773  0.15592333    -0.79500
O781        O  0.52478504  0.21407604  0.10094757    -0.98580
Zr782      Zr  0.47495717  0.30254404  0.07383391     2.21500
Zr783      Zr  0.57607224  0.30190784  0.07175100     2.11130
O784        O  0.55106463  0.30046345  0.11119623    -2.47270
O785        O  0.50144947  0.30051769  0.11198697    -0.79290
O786        O  0.55232688  0.34244229  0.07494033    -0.71490
O787        O  0.49900704  0.26201333  0.07201419    -2.32440
O788        O  0.49926836  0.34269464  0.07577340    -2.28650
O789        O  0.55177346  0.26168566  0.07060702    -0.73250
H790        H  0.55910770  0.30454959  0.01783016     0.78750
H791        H  0.48740659  0.24702932  0.07169492     0.79840
H792        H  0.56208370  0.29987237  0.12645553     0.82060
H793        H  0.48783247  0.35786510  0.07654917     0.79670
H794        H  0.50573018  0.21161235  0.03595006     0.42700
H795        H  0.54319381  0.20901179  0.09751857     0.41680
H796        H  0.52847724  0.26834628  0.16463390     0.41350
H797        H  0.53941997  0.32900574  0.16662133     0.39290
H798        H  0.54419944  0.39223966  0.10523514     0.42420
H799        H  0.50586785  0.39582623  0.04252113     0.37200
H800        H  0.52644179  0.34310458  0.98190312     0.43320
H801        H  0.52921725  0.26926855  0.97791600     0.39730
H802        H  0.53187543  0.35898713  0.16560160     0.44650
H803        H  0.53614669  0.39839615  0.03869016     0.43380
H804        H  0.53253758  0.23904576  0.98373539     0.43510
H805        H  0.52071513  0.20613899  0.11813695     0.43870
C806        C  0.35895163  0.21722997  0.23661140     0.03420
C807        C  0.36630503  0.19133361  0.24321726    -0.12730
C808        C  0.38505622  0.17758762  0.22813818     0.00920
C809        C  0.39580141  0.19018676  0.20623336    -0.11250
C810        C  0.38868847  0.21595005  0.19958529     0.03410
C811        C  0.36995661  0.22932838  0.21455951    -0.10680
H812        H  0.35830919  0.18246809  0.26072587     0.09010
H813        H  0.41173419  0.18102558  0.19558776     0.06540
H814        H  0.36540906  0.24973246  0.21024171     0.06380
C815        C  0.40909057  0.19801038  0.89742345     0.03420
C816        C  0.41231555  0.20748482  0.92299064    -0.12730
C817        C  0.40010274  0.23076697  0.93148652     0.00920
C818        C  0.38307373  0.24405059  0.91428807    -0.11250
C819        C  0.37917496  0.23476722  0.88859100     0.03410
C820        C  0.39247189  0.21184819  0.88024591    -0.10680
H821        H  0.42564631  0.19733224  0.93600997     0.09010
H822        H  0.37359871  0.26211482  0.92053408     0.06540
H823        H  0.39040042  0.20527614  0.86021777     0.06380
C824        C  0.65468992  0.22134934  0.93641465     0.03420
C825        C  0.67556501  0.23117686  0.92139237    -0.12730
C826        C  0.68492022  0.21735795  0.89908806     0.00920
C827        C  0.67127020  0.19407884  0.89179877    -0.11250
C828        C  0.64913333  0.18548847  0.90568537     0.03410
C829        C  0.64167854  0.19860508  0.92842996    -0.10680
H830        H  0.68331169  0.25020397  0.92665720     0.09010
H831        H  0.67698744  0.18253251  0.87503210     0.06540
H832        H  0.62447145  0.19212398  0.93903629     0.06380
O833        O  0.57975766  0.00191903  0.76921816    -0.75000
O834        O  0.55441321  0.97062304  0.78874554    -0.53910
C835        C  0.57350547  0.97786264  0.77423422     0.78730
O836        O  0.57959173  0.08373909  0.87174874    -0.59600
O837        O  0.55658961  0.11649035  0.85193390    -0.52630
C838        C  0.57515639  0.10822110  0.86682561     0.70740
O839        O  0.58055015  0.99620796  0.86054110    -0.74160
O840        O  0.55308540  0.96756199  0.84053546    -0.54720
C841        C  0.57390070  0.97285151  0.85342689     0.76750
O842        O  0.57962333  0.09139144  0.77406663    -0.59300
O843        O  0.55608361  0.12072383  0.79865753    -0.52420
C844        C  0.57425954  0.11477552  0.78233430     0.73340
Zr845      Zr  0.56456831  0.04625882  0.78097033     2.54710
O846        O  0.61210598  0.04621961  0.77861692    -0.79870
O847        O  0.56146043  0.04934143  0.73359591    -0.93290
Zr848      Zr  0.56194729  0.04059854  0.85953424     2.64680
O849        O  0.60803068  0.03732799  0.87124427    -0.98240
O850        O  0.55241625  0.03501406  0.90579878    -0.80300
O851        O  0.56359087  0.01902010  0.81845388    -0.83660
O852        O  0.56455491  0.06796120  0.82209882    -2.18370
O853        O  0.47614762  0.09359526  0.77002718    -0.67050
O854        O  0.49842844  0.12167911  0.79691509    -0.51610
C855        C  0.48179807  0.11665599  0.77891131     0.71720
O856        O  0.46466873  0.99815974  0.85742104    -0.59960
O857        O  0.49198768  0.96881470  0.83751977    -0.51930
C858        C  0.47095641  0.97468666  0.84994241     0.73520
O859        O  0.46691384  0.08641216  0.86681046    -0.71350
O860        O  0.49530114  0.11739198  0.85147780    -0.50030
C861        C  0.47438494  0.11045568  0.86363785     0.74910
O862        O  0.47006342  0.00322405  0.76925900    -0.66680
O863        O  0.49646922  0.97134144  0.78611250    -0.53880
C864        C  0.47646904  0.97886587  0.77306798     0.73290
Zr865      Zr  0.48745795  0.04748833  0.77871866     2.77540
O866        O  0.44024908  0.05027541  0.77287672    -0.97430
O867        O  0.49343078  0.04747280  0.73151723    -0.78250
Zr868      Zr  0.48444983  0.04227662  0.85694856     2.70070
O869        O  0.43769028  0.04306487  0.86594598    -0.79500
O870        O  0.49069988  0.03676090  0.90374111    -0.98580
Zr871      Zr  0.52418064  0.99495474  0.81552158     2.21500
Zr872      Zr  0.52583135  0.09406797  0.82339338     2.11130
O873        O  0.48607470  0.06976829  0.81949907    -2.47270
O874        O  0.48517993  0.02030931  0.81609772    -0.79290
O875        O  0.52637702  0.07282056  0.78167717    -0.71490
O876        O  0.52279941  0.01547689  0.85740810    -2.32440
O877        O  0.52574616  0.02119916  0.77706037    -2.28650
O878        O  0.52361190  0.06728546  0.86151096    -0.73250
H879        H  0.58013650  0.07859591  0.82304539     0.78750
H880        H  0.52206808  0.00254495  0.87122267     0.79840
H881        H  0.47100713  0.08126000  0.81925958     0.82060
H882        H  0.52602042  0.01043084  0.76148369     0.79670
H883        H  0.55846177  0.01692104  0.90981063     0.42700
H884        H  0.49145767  0.05495644  0.91067570     0.41680
H885        H  0.42948236  0.04474714  0.84851462     0.41350
H886        H  0.43431560  0.06362512  0.78572491     0.39290
H887        H  0.50359742  0.06363778  0.72791854     0.42420
H888        H  0.55618546  0.03152463  0.72779835     0.37200
H889        H  0.61778260  0.04337413  0.79688588     0.43320
H890        H  0.61705101  0.05080487  0.86058138     0.39730
H891        H  0.43784721  0.05877781  0.75564445     0.44650
H892        H  0.57981009  0.05105780  0.72763142     0.43380
H893        H  0.60908356  0.04385309  0.88944314     0.43510
H894        H  0.47377561  0.02982532  0.91012026     0.43870
C895        C  0.66342459  0.37961585  0.94275551     0.03420
C896        C  0.67154133  0.36544187  0.92062694    -0.12730
C897        C  0.69467406  0.37244696  0.90709847     0.00920
C898        C  0.70938419  0.39394274  0.91667930    -0.11250
C899        C  0.70047704  0.40872285  0.93803914     0.03410
C900        C  0.67729930  0.40178765  0.95056444    -0.10680
H901        H  0.65990263  0.34878127  0.91462628     0.09010
H902        H  0.72846245  0.39840161  0.90871143     0.06540
H903        H  0.67133089  0.41236059  0.96804244     0.06380
C904        C  0.85348364  0.36901914  0.73330150     0.03420
C905        C  0.86214824  0.39443652  0.74049891    -0.12730
C906        C  0.87795536  0.40920530  0.72341278     0.00920
C907        C  0.88433190  0.39886054  0.69893127    -0.11250
C908        C  0.87833079  0.37275803  0.69268091     0.03410
C909        C  0.86200094  0.35825002  0.70932005    -0.10680
H910        H  0.85748091  0.40234405  0.75961649     0.09010
H911        H  0.89789364  0.40953582  0.68653722     0.06540
H912        H  0.85793663  0.33781220  0.70477905     0.06380
C913        C  0.79012624  0.30405151  0.80314047     0.02580
C914        C  0.77491358  0.31764215  0.82247925     0.02580
C915        C  0.75128779  0.30597666  0.83279944     0.02580
C916        C  0.74648562  0.27908830  0.82579096     0.02580
C917        C  0.75671726  0.27093933  0.80143734     0.02580
C918        C  0.78320740  0.27775809  0.79662698     0.02580
C919        C  0.65299325  0.17943758  0.73825792     0.03420
C920        C  0.66711430  0.20131582  0.74741729    -0.12730
C921        C  0.69016362  0.21005041  0.73444142     0.00920
C922        C  0.69845586  0.19535136  0.71230699    -0.11250
C923        C  0.68589255  0.17198172  0.70513374     0.03410
C924        C  0.66293062  0.16460892  0.71754949    -0.10680
H925        H  0.66019708  0.21073065  0.76507070     0.09010
H926        H  0.71470819  0.20113182  0.70034003     0.06540
H927        H  0.65342687  0.14641139  0.71186313     0.06380
O928        O  0.73231712  0.98687916  0.60766996    -0.75000
O929        O  0.74584882  0.01436685  0.64012842    -0.53910
C930        C  0.73488296  0.99323589  0.63189597     0.78730
O931        O  0.82824222  0.99237914  0.52554367    -0.59600
O932        O  0.80756585  0.01749077  0.49488440    -0.52630
C933        C  0.82222981  0.99822959  0.50175142     0.70740
O934        O  0.82148748  0.99173786  0.61394052    -0.74160
O935        O  0.79914072  0.01433667  0.64518932    -0.54720
C936        C  0.81493284  0.99593242  0.63781565     0.76750
O937        O  0.73505022  0.99068715  0.52021141    -0.59300
O938        O  0.75582765  0.01900367  0.49288182    -0.52420
C939        C  0.74258623  0.99811653  0.49728511     0.73340
Zr940      Zr  0.73848133  0.00776140  0.56512479     2.54710
O941        O  0.72479580  0.96196281  0.56255420    -0.79870
O942        O  0.69191622  0.01781893  0.56422716    -0.93290
Zr943      Zr  0.81699863  0.00801697  0.56983308     2.64680
O944        O  0.82312916  0.96043167  0.57107544    -0.98240
O945        O  0.86419930  0.01339702  0.57274583    -0.80300
O946        O  0.77618490  0.00705132  0.59211587    -0.83660
O947        O  0.77941654  0.00742951  0.54344471    -2.18370
O948        O  0.73321701  0.10338553  0.52240101    -0.67050
O949        O  0.75747830  0.07878620  0.49401962    -0.51610
C950        C  0.74227713  0.09815752  0.49945016     0.71720
O951        O  0.82325279  0.09938574  0.61765437    -0.59960
O952        O  0.79967418  0.07416660  0.64613777    -0.51930
C953        C  0.81568465  0.09279240  0.64074708     0.73520
O954        O  0.82649533  0.10340103  0.52895752    -0.71350
O955        O  0.81044370  0.07645803  0.49703019    -0.50030
C956        C  0.82267158  0.09696205  0.50486082     0.74910
O957        O  0.72700027  0.10156036  0.60945755    -0.66680
O958        O  0.74560906  0.07695665  0.64158112    -0.53880
C959        C  0.73122731  0.09625187  0.63359312     0.73290
Zr960      Zr  0.73808013  0.08512115  0.56654034     2.77540
O961        O  0.73068260  0.13252854  0.56874954    -0.97430
O962        O  0.69110023  0.07847415  0.56289667    -0.78250
Zr963      Zr  0.81659879  0.08545635  0.57241834     2.70070
O964        O  0.82170650  0.13302260  0.57508525    -0.79500
O965        O  0.86385229  0.07985018  0.57423871    -0.98580
Zr966      Zr  0.77400487  0.04552562  0.61878042     2.21500
Zr967      Zr  0.78119961  0.04760410  0.51988095     2.11130
O968        O  0.77910120  0.08658170  0.54550221    -2.47270
O969        O  0.77549872  0.08518778  0.59414858    -0.79290
O970        O  0.73910601  0.04694104  0.53984088    -0.71490
O971        O  0.81548950  0.04595643  0.59702862    -2.32440
O972        O  0.73568130  0.04595690  0.59194266    -2.28650
O973        O  0.81991008  0.04744914  0.54551272    -0.73250
H974        H  0.78047054  0.99204763  0.53243050     0.78750
H975        H  0.82967670  0.04558983  0.60946415     0.79840
H976        H  0.77969278  0.10240769  0.53513796     0.82060
H977        H  0.71996803  0.04573186  0.60246189     0.79670
H978        H  0.86767877  0.01578329  0.59162185     0.42700
H979        H  0.86879616  0.07369050  0.55653684     0.41680
H980        H  0.80367692  0.14000355  0.57343797     0.41350
H981        H  0.74463842  0.14035299  0.55781759     0.39290
H982        H  0.68794676  0.07660255  0.54390423     0.42420
H983        H  0.68499732  0.01015274  0.58061256     0.37200
H984        H  0.74136709  0.95181055  0.56232251     0.43320
H985        H  0.81075915  0.95341846  0.55794992     0.39730
H986        H  0.71431056  0.13564726  0.55890845     0.44650
H987        H  0.68487225  0.00639615  0.55023385     0.43380
H988        H  0.84068230  0.95734133  0.56343739     0.43510
H989        H  0.87074243  0.09802517  0.57525342     0.43870
C990        C  0.85579636  0.21492919  0.40784091     0.03420
C991        C  0.84597982  0.18991381  0.41435793    -0.12730
C992        C  0.85789091  0.17516314  0.43425005     0.00920
C993        C  0.87953844  0.18530200  0.44730569    -0.11250
C994        C  0.88836764  0.21067719  0.44212722     0.03410
C995        C  0.87670052  0.22554502  0.42220364    -0.10680
H996        H  0.82857147  0.18251092  0.40482984     0.09010
H997        H  0.88790520  0.17441598  0.46352887     0.06540
H998        H  0.88331005  0.24544164  0.41841541     0.06380
C999        C  0.85181234  0.20657712  0.73855528     0.03420
C1000       C  0.84678268  0.17984012  0.73278166    -0.12730
C1001       C  0.85856476  0.16743508  0.71129760     0.00920
C1002       C  0.87830127  0.18035067  0.69760450    -0.11250
C1003       C  0.88509888  0.20618669  0.70378354     0.03410
C1004       C  0.87128950  0.21960748  0.72358523    -0.10680
H1005       H  0.83304465  0.16845024  0.74401470     0.09010
H1006       H  0.88707788  0.17103033  0.68062856     0.06540
H1007       H  0.87544269  0.24025375  0.72672645     0.06380
C1008       C  0.37269867  0.21889694  0.73396865     0.03420
C1009       C  0.39594885  0.21013977  0.74559738    -0.12730
C1010       C  0.41066311  0.18990978  0.73393788     0.00920
C1011       C  0.40241624  0.17953476  0.70998349    -0.11250
C1012       C  0.37961553  0.18849505  0.69776697     0.03410
C1013       C  0.36476239  0.20843750  0.70985761    -0.10680
H1014       H  0.40186683  0.21834400  0.76420518     0.09010
H1015       H  0.41275801  0.16281998  0.70170230     0.06540
H1016       H  0.34673035  0.21526790  0.70105739     0.06380
C1017       C  0.30276207  0.32034895  0.82895371     0.02580
C1018       C  0.28248207  0.33426475  0.81563628     0.02580
C1019       C  0.27611840  0.32744816  0.78902340     0.02580
C1020       C  0.28607286  0.30250709  0.77990960     0.02580
C1021       C  0.30714299  0.28988707  0.79286166     0.02580
C1022       C  0.31460961  0.29782223  0.81804162     0.02580
O1023       O  0.26277557  0.00088644  0.51685290    -0.75000
O1024       O  0.28349008  0.97007644  0.54152813    -0.53910
C1025       C  0.26935244  0.97693899  0.52201730     0.78730
O1026       O  0.34827893  0.09249221  0.51379523    -0.59600
O1027       O  0.32939350  0.12252376  0.54115214    -0.52630
C1028       C  0.34131053  0.11605757  0.52001285     0.70740
O1029       O  0.34866890  0.00420993  0.51171071    -0.74160
O1030       O  0.33369849  0.97071838  0.53673001    -0.54720
C1031       C  0.34460536  0.97961473  0.51587872     0.76750
O1032       O  0.25600620  0.08874552  0.52064233    -0.59300
O1033       O  0.27765957  0.11950862  0.54459252    -0.52420
C1034       C  0.26220862  0.11274013  0.52605788     0.73340
Zr1035     Zr  0.26652716  0.04450205  0.53668599     2.54710
O1036       O  0.25079190  0.04551546  0.49185964    -0.79870
O1037       O  0.22087549  0.04066223  0.54968107    -0.93290
Zr1038     Zr  0.34523463  0.04768829  0.53117061     2.64680
O1039       O  0.35388426  0.04853687  0.48434697    -0.98240
O1040       O  0.39260397  0.04786973  0.53574299    -0.80300
O1041       O  0.30684152  0.02167288  0.53258353    -0.83660
O1042       O  0.30480915  0.07026602  0.53327754    -2.18370
O1043       O  0.26142636  0.08780666  0.62968025    -0.67050
O1044       O  0.28014599  0.11856439  0.60345088    -0.51610
C1045       C  0.26625839  0.11184665  0.62320976     0.71720
O1046       O  0.35480241  0.00155378  0.62600352    -0.59960
O1047       O  0.33963052  0.97037807  0.59784434    -0.51930
C1048       C  0.35074361  0.97742037  0.61913368     0.73520
O1049       O  0.35797831  0.09110771  0.62390334    -0.71350
O1050       O  0.33390916  0.12102575  0.60070047    -0.50030
C1051       C  0.34994799  0.11469038  0.61882865     0.74910
O1052       O  0.26663687  0.99915336  0.62984899    -0.66680
O1053       O  0.28507082  0.96985182  0.60130508    -0.53880
C1054       C  0.27176820  0.97566711  0.62187241     0.73290
Zr1055     Zr  0.27247809  0.04369673  0.61339831     2.77540
O1056       O  0.27348681  0.04289299  0.66099462    -0.97430
O1057       O  0.22495813  0.04096747  0.61301951    -0.78250
Zr1058     Zr  0.35061931  0.04607175  0.60758799     2.70070
O1059       O  0.36472166  0.04728613  0.65296955    -0.79500
O1060       O  0.39698412  0.04398386  0.59689151    -0.98580
Zr1061     Zr  0.31056234  0.99526930  0.57055247     2.21500
Zr1062     Zr  0.30684245  0.09515642  0.57249327     2.11130
O1063       O  0.31066217  0.06968298  0.61135873    -2.47270
O1064       O  0.31235443  0.01997738  0.61003445    -0.79290
O1065       O  0.26760072  0.07015925  0.57543008    -0.71490
O1066       O  0.34991631  0.02058187  0.56860214    -2.32440
O1067       O  0.26970273  0.01793552  0.57456841    -2.28650
O1068       O  0.34803641  0.07318212  0.56980184    -0.73250
H1069       H  0.30306371  0.08100748  0.51787771     0.78750
H1070       H  0.36514619  0.00934203  0.56723498     0.79840
H1071       H  0.31099310  0.08055717  0.62682781     0.82060
H1072       H  0.25525861  0.00574170  0.57544894     0.79670
H1073       H  0.39820593  0.03031916  0.52934404     0.42700
H1074       H  0.40190778  0.06250294  0.59343695     0.41680
H1075       H  0.34823332  0.04700274  0.66315516     0.41350
H1076       H  0.28620865  0.05667877  0.66595719     0.39290
H1077       H  0.21911553  0.05818149  0.60603646     0.41220
H1078       H  0.21595091  0.02250631  0.54465565     0.37200
H1079       H  0.26686503  0.04698944  0.48113538     0.43320
H1080       H  0.33945317  0.05897014  0.47661266     0.39730
H1081       H  0.25628017  0.04997676  0.66654046     0.44650
H1082       H  0.21131941  0.05206550  0.53723121     0.43380
H1083       H  0.36973362  0.05945366  0.48204909     0.43510
H1084       H  0.40563480  0.03967491  0.61364681     0.43870
O1085       O  0.97623860  0.32907389  0.51809930    -0.75000
O1086       O  0.94678007  0.30664643  0.54321831    -0.53910
C1087       C  0.95293541  0.32156207  0.52391438     0.78730
O1088       O  0.07195632  0.24146988  0.52018908    -0.59600
O1089       O  0.10024498  0.26622654  0.54406001    -0.52630
C1090       C  0.09488168  0.25076792  0.52498512     0.70740
O1091       O  0.98538901  0.23983600  0.51689484    -0.74160
O1092       O  0.95200752  0.25450108  0.54248828    -0.54720
C1093       C  0.96096554  0.24321525  0.52172480     0.76750
O1094       O  0.06446299  0.33295000  0.51571653    -0.59300
O1095       O  0.09633907  0.31817281  0.54330120    -0.52420
C1096       C  0.08857778  0.32919067  0.52215358     0.73340
Zr1097     Zr  0.02090116  0.32434462  0.53398497     2.54710
O1098       O  0.01895638  0.32908515  0.48671841    -0.79870
O1099       O  0.01895194  0.37206409  0.53833388    -0.93290
Zr1100     Zr  0.02738371  0.24528644  0.53802158     2.64680
O1101       O  0.02804145  0.22817102  0.49350437    -0.98240
O1102       O  0.02840430  0.19888207  0.54983248    -0.80300
O1103       O  0.99970281  0.28290472  0.53583043    -0.83660
O1104       O  0.04808081  0.28663502  0.53499828    -2.18370
O1105       O  0.06440715  0.33977486  0.62624412    -0.67050
O1106       O  0.09639648  0.31997995  0.60231281    -0.51610
C1107       C  0.08862392  0.33482572  0.62107216     0.71720
O1108       O  0.98420782  0.24258220  0.63431296    -0.59960
O1109       O  0.95147626  0.25707212  0.60778042    -0.51930
C1110       C  0.95986583  0.24607373  0.62884482     0.73520
O1111       O  0.07178173  0.24524035  0.63146508    -0.71350
O1112       O  0.09982088  0.26680677  0.60442794    -0.50030
C1113       C  0.09488408  0.25294368  0.62480752     0.74910
O1114       O  0.97612424  0.33335469  0.62561658    -0.66680
O1115       O  0.94618740  0.30982953  0.60256655    -0.53880
C1116       C  0.95254553  0.32600228  0.62083117     0.73290
Zr1117     Zr  0.02081225  0.32790451  0.61039842     2.77540
O1118       O  0.01803475  0.33619394  0.65721664    -0.97430
O1119       O  0.01750770  0.37508593  0.60260904    -0.78250
Zr1120     Zr  0.02701930  0.24908965  0.61428846     2.70070
O1121       O  0.02901125  0.24112117  0.66112292    -0.79500
O1122       O  0.02844030  0.20152548  0.60851797    -0.98580
Zr1123     Zr  0.97352793  0.28276990  0.57429442     2.21500
Zr1124     Zr  0.07314630  0.29070970  0.57385498     2.11130
O1125       O  0.04814000  0.29043573  0.61306310    -2.47270
O1126       O  0.99934760  0.28667250  0.61271091    -0.79290
O1127       O  0.04673764  0.32942059  0.57202933    -0.71490
O1128       O  0.00073766  0.24420340  0.57621264    -2.32440
O1129       O  0.99474039  0.32468217  0.57229826    -2.28650
O1130       O  0.05349250  0.24824106  0.57608879    -0.73250
H1131       H  0.05846849  0.28666124  0.51928050     0.78750
H1132       H  0.99033894  0.22836200  0.57693698     0.79840
H1133       H  0.05883946  0.29196516  0.62848100     0.82060
H1134       H  0.98212324  0.33887525  0.57169996     0.79670
H1135       H  0.01250308  0.19144476  0.54168352     0.42700
H1136       H  0.04732126  0.19726585  0.60736246     0.41680
H1137       H  0.02938165  0.25894492  0.66899517     0.41350
H1138       H  0.03227456  0.32554995  0.66501275     0.39290
H1139       H  0.03536585  0.38039761  0.59732129     0.42420
H1140       H  0.00034864  0.37597738  0.54215856     0.37200
H1141       H  0.02125985  0.31092782  0.47998574     0.43320
H1142       H  0.03809182  0.24110035  0.48309344     0.39730
H1143       H  0.02364522  0.35470706  0.65941356     0.44650
H1144       H  0.02167316  0.37868569  0.52034794     0.43380
H1145       H  0.03913684  0.21216872  0.49405927     0.43510
H1146       H  0.02290243  0.19438372  0.62564274     0.43870
C1147       C  0.21996781  0.19518405  0.46140787     0.03420
C1148       C  0.23233806  0.20935329  0.44139379    -0.12730
C1149       C  0.22010099  0.23170393  0.43067517     0.00920
C1150       C  0.19579171  0.24016850  0.44053031    -0.11250
C1151       C  0.18348704  0.22589249  0.46052762     0.03410
C1152       C  0.19559692  0.20343562  0.47060977    -0.10680
H1153       H  0.25126179  0.20298788  0.43413330     0.09010
H1154       H  0.18640926  0.25752093  0.43248622     0.06540
H1155       H  0.18647318  0.19290299  0.48663645     0.06380
C1156       C  0.20176473  0.38390674  0.72031580     0.03420
C1157       C  0.19484007  0.41079100  0.72373121    -0.12730
C1158       C  0.17414874  0.42200469  0.70949347     0.00920
C1159       C  0.16242129  0.40732948  0.68986275    -0.11250
C1160       C  0.16725802  0.38045114  0.68745101     0.03410
C1161       C  0.18695738  0.36866262  0.70254410    -0.10680
H1162       H  0.20454761  0.42297024  0.73803786     0.09010
H1163       H  0.14647175  0.41593364  0.67878458     0.06540
H1164       H  0.18960276  0.34752986  0.70148426     0.06380
C1165       C  0.18570106  0.22641695  0.68628154     0.03420
C1166       C  0.19989259  0.24291943  0.70309704    -0.12730
C1167       C  0.22525565  0.23573115  0.71108302     0.00920
C1168       C  0.23624869  0.21207637  0.70195390    -0.11250
C1169       C  0.22201073  0.19560620  0.68533701     0.03410
C1170       C  0.19663381  0.20256870  0.67797969    -0.10680
H1171       H  0.19172086  0.26174536  0.70897301     0.09010
H1172       H  0.25608196  0.20673348  0.70727082     0.06540
H1173       H  0.18622087  0.19046539  0.66397958     0.06380
C1174       C  0.69465094  0.21860307  0.23221140     0.03420
C1175       C  0.68649435  0.22984057  0.20840732    -0.12730
C1176       C  0.66750331  0.21730433  0.19300491     0.00920
C1177       C  0.65718011  0.19327778  0.20119856    -0.11250
C1178       C  0.66402382  0.18238135  0.22528511     0.03410
C1179       C  0.68299339  0.19494035  0.24082863    -0.10680
H1180       H  0.69407827  0.24882394  0.20245250     0.09010
H1181       H  0.64159811  0.18426922  0.18996053     0.06540
H1182       H  0.68787716  0.18698587  0.25984181     0.06380
C1183       C  0.19156812  0.67689035  0.21086898     0.03420
C1184       C  0.20684898  0.69273623  0.22718206    -0.12730
C1185       C  0.19574072  0.70520810  0.24938701     0.00920
C1186       C  0.16970780  0.69849724  0.25635751    -0.11250
C1187       C  0.15510167  0.68080887  0.24099352     0.03410
C1188       C  0.16515447  0.67360774  0.21651930    -0.10680
H1189       H  0.22751055  0.69463594  0.22290532     0.09010
H1190       H  0.16078163  0.70632981  0.27376105     0.06540
H1191       H  0.15335787  0.66230776  0.20304177     0.06380
C1192       C  0.34365832  0.41497042  0.20088316     0.03420
C1193       C  0.36740218  0.40717520  0.18953839    -0.12730
C1194       C  0.37773058  0.38213889  0.19440229     0.00920
C1195       C  0.36495205  0.36520847  0.21178731    -0.11250
C1196       C  0.34126276  0.37286625  0.22345827     0.03410
C1197       C  0.33043289  0.39765295  0.21767124    -0.10680
H1198       H  0.37666468  0.41970448  0.17509950     0.09010
H1199       H  0.37266956  0.34558851  0.21513143     0.06540
H1200       H  0.31152507  0.40315459  0.22563831     0.06380
C1201       C  0.36144724  0.17939864  0.43106031     0.03420
C1202       C  0.38201015  0.16610870  0.41871723    -0.12730
C1203       C  0.38662136  0.16932720  0.39200398     0.00920
C1204       C  0.37157288  0.18739359  0.37775088    -0.11250
C1205       C  0.35131474  0.20150731  0.39004234     0.03410
C1206       C  0.34607080  0.19719287  0.41671451    -0.10680
H1207       H  0.39322794  0.15161760  0.42953979     0.09010
H1208       H  0.37506518  0.18985817  0.35700027     0.06540
H1209       H  0.32943084  0.20670518  0.42593177     0.06380
C1210       C  0.15817527  0.36243813  0.44224233     0.03420
C1211       C  0.14765157  0.38673489  0.43492676    -0.12730
C1212       C  0.15320281  0.39748332  0.41048364     0.00920
C1213       C  0.17143146  0.38511002  0.39411283    -0.11250
C1214       C  0.18261974  0.36092167  0.40140193     0.03410
C1215       C  0.17554364  0.34929953  0.42535405    -0.10680
H1216       H  0.13296301  0.39604151  0.44721583     0.09010
H1217       H  0.17550495  0.39329562  0.37498302     0.06540
H1218       H  0.18296346  0.32997898  0.43051419     0.06380
C1219       C  0.28488336  0.30587791  0.29470003     0.02580
C1220       C  0.26326940  0.31810289  0.30731304     0.02580
C1221       C  0.25416207  0.30789674  0.33144728     0.02580
C1222       C  0.26610135  0.28522547  0.34232551     0.02580
C1223       C  0.28744908  0.27309927  0.32954569     0.02580
C1224       C  0.29569917  0.28239042  0.30491245     0.02580
C1225       C  0.20031951  0.34730596  0.38296918    -0.05170
C1226       C  0.22390204  0.35933929  0.37591986    -0.32600
C1227       C  0.24103804  0.34712241  0.35827639     0.36650
C1228       C  0.23442454  0.32268108  0.34709720    -0.05530
C1229       C  0.21032897  0.31109374  0.35342344    -0.32500
C1230       C  0.19351503  0.32302180  0.37160627     0.36550
H1231       H  0.22934235  0.37798499  0.38465614     0.16920
O1232       O  0.26508701  0.35811173  0.35357925    -0.60000
H1233       H  0.20499120  0.29233122  0.34490015     0.16940
O1234       O  0.17027791  0.31110909  0.37778917    -0.60100
H1235       H  0.17481061  0.29750578  0.39093267     0.43930
H1236       H  0.26149313  0.37575728  0.34608840     0.43890
C1237       C  0.33475456  0.21961617  0.37459533    -0.05170
C1238       C  0.32007452  0.20996568  0.35345743    -0.32600
C1239       C  0.30432639  0.22694903  0.33859275     0.36650
C1240       C  0.30376409  0.25401768  0.34439386    -0.05530
C1241       C  0.31856003  0.26359308  0.36542886    -0.32500
C1242       C  0.33377847  0.24660716  0.38061162     0.36550
H1243       H  0.32058068  0.18916446  0.34872502     0.16920
O1244       O  0.28964245  0.21699545  0.31851601    -0.60000
H1245       H  0.31834119  0.28443692  0.37000816     0.16940
O1246       O  0.34848508  0.25669662  0.40062668    -0.60100
H1247       H  0.33623960  0.25842071  0.41558746     0.43930
H1248       H  0.27365471  0.20991260  0.32691257     0.43890
C1249       C  0.32735453  0.35437544  0.24076914    -0.05170
C1250       C  0.30353669  0.34316025  0.23290880    -0.32600
C1251       C  0.29003395  0.32588927  0.24949205     0.36650
C1252       C  0.29997768  0.32044208  0.27454686    -0.05530
C1253       C  0.32423659  0.33098373  0.28189948    -0.32500
C1254       C  0.33790583  0.34779195  0.26522366     0.36550
H1255       H  0.29545195  0.34783721  0.21391652     0.16920
O1256       O  0.26685653  0.31513834  0.24141805    -0.60000
H1257       H  0.33207928  0.32700504  0.30115301     0.16940
O1258       O  0.36116518  0.35839749  0.27332406    -0.60100
H1259       H  0.35639183  0.37525920  0.28193305     0.43930
H1260       H  0.27165963  0.29789082  0.23363832     0.43890
C1261       C  0.23214425  0.24550187  0.40838433    -0.05170
C1262       C  0.24656165  0.26862836  0.41236972    -0.32600
C1263       C  0.25785220  0.28192738  0.39111126     0.36650
C1264       C  0.25459723  0.27203518  0.36561762    -0.05530
C1265       C  0.24023008  0.24886331  0.36178880    -0.32500
C1266       C  0.22916038  0.23555222  0.38295000     0.36550
H1267       H  0.24913847  0.27627512  0.43196466     0.16920
O1268       O  0.27265354  0.30400376  0.39537840    -0.60000
H1269       H  0.23751072  0.24117428  0.34222872     0.16940
O1270       O  0.21494848  0.21311612  0.37857524    -0.60100
H1271       H  0.22784913  0.19851021  0.37934501     0.43930
H1272       H  0.26032894  0.31748840  0.40219683     0.43890
C1273       C  0.14796854  0.36512422  0.67242738    -0.05170
C1274       C  0.12137782  0.36955202  0.67778357    -0.32600
C1275       C  0.10203008  0.36063248  0.66095920     0.36650
C1276       C  0.10891960  0.34575528  0.63866315    -0.05530
C1277       C  0.13561831  0.33998335  0.63415487    -0.32500
C1278       C  0.15507878  0.34966094  0.65082636     0.36550
H1279       H  0.11560342  0.38124810  0.69458969     0.16920
O1280       O  0.07650390  0.36681529  0.66661619    -0.60000
H1281       H  0.14156323  0.32828627  0.61744299     0.16940
O1282       O  0.18090342  0.34527066  0.64495971    -0.60100
H1283       H  0.18548639  0.32867436  0.65407220     0.43930
H1284       H  0.07341005  0.38418831  0.65830616     0.43890
C1285       C  0.14564909  0.34910510  0.46441479    -0.05170
C1286       C  0.12588447  0.33097834  0.45874820    -0.32600
C1287       C  0.10723903  0.32453564  0.47759568     0.36650
C1288       C  0.10864789  0.33572940  0.50272182    -0.05530
C1289       C  0.12971246  0.35210363  0.50913773    -0.32500
C1290       C  0.14798935  0.35917065  0.48996206     0.36550
H1291       H  0.12372134  0.32336962  0.43907349     0.16920
O1292       O  0.08764805  0.30724699  0.47132108    -0.60000
H1293       H  0.13126067  0.36034768  0.52860793     0.16940
O1294       O  0.16699450  0.37721483  0.49582612    -0.60100
H1295       H  0.18262105  0.36658128  0.50041746     0.43930
H1296       H  0.07415311  0.31803189  0.46240490     0.43890
C1297       C  0.11752267  0.24655031  0.64197301    -0.05170
C1298       C  0.14190276  0.25832069  0.63665256    -0.32600
C1299       C  0.16375897  0.25300535  0.65204777     0.36650
C1300       C  0.16173847  0.23564362  0.67324938    -0.05530
C1301       C  0.13754233  0.22417919  0.67913567    -0.32500
C1302       C  0.11544010  0.22963959  0.66383103     0.36550
H1303       H  0.14428822  0.27158379  0.62026535     0.16920
O1304       O  0.18746338  0.26356979  0.64519252    -0.60000
H1305       H  0.13596318  0.21044907  0.69524720     0.16940
O1306       O  0.09210119  0.21812990  0.67034999    -0.60100
H1307       H  0.09206076  0.20098684  0.66104191     0.43930
H1308       H  0.18925670  0.27959060  0.65612407     0.43890
C1309       C  0.11635787  0.24487796  0.50647888    -0.05170
C1310       C  0.13660429  0.26337564  0.50340756    -0.32600
C1311       C  0.15758192  0.25846896  0.48654275     0.36650
C1312       C  0.15880504  0.23457529  0.47275060    -0.05530
C1313       C  0.13806166  0.21662189  0.47480724    -0.32500
C1314       C  0.11678250  0.22173901  0.49128300     0.36550
H1315       H  0.13638717  0.28164615  0.51437321     0.16920
O1316       O  0.17778915  0.27613827  0.48532701    -0.60000
H1317       H  0.13894853  0.19802481  0.46441417     0.16940
O1318       O  0.09745574  0.20322309  0.49364877    -0.60100
H1319       H  0.08628286  0.20559985  0.47800613     0.43930
H1320       H  0.17215367  0.28957015  0.47244151     0.43890
C1321       C  0.25186843  0.13387795  0.50895865    -0.05170
C1322       C  0.22990625  0.12898378  0.49324363    -0.32600
C1323       C  0.22025805  0.14833390  0.47640078     0.36650
C1324       C  0.23273126  0.17294903  0.47477324    -0.05530
C1325       C  0.25518384  0.17762667  0.48959938    -0.32500
C1326       C  0.26464552  0.15850375  0.50681485     0.36550
H1327       H  0.21988240  0.11024561  0.49428717     0.16920
O1328       O  0.19809973  0.14334268  0.46218959    -0.60000
H1329       H  0.26475268  0.19662277  0.48868861     0.16940
O1330       O  0.28678647  0.16393473  0.52089406    -0.60100
H1331       H  0.28063459  0.17394865  0.53639426     0.43930
H1332       H  0.20446653  0.13743738  0.44482379     0.43890
C1333       C  0.25566476  0.13334514  0.63990749    -0.05170
C1334       C  0.23796704  0.12746780  0.66019942    -0.32600
C1335       C  0.22754047  0.14749374  0.67593383     0.36650
C1336       C  0.23498449  0.17372466  0.67172335    -0.05530
C1337       C  0.25306710  0.17967838  0.65213321    -0.32500
C1338       C  0.26337124  0.15988380  0.63621300     0.36550
H1339       H  0.23181649  0.10737577  0.66366208     0.16920
O1340       O  0.20966146  0.14135627  0.69496437    -0.60000
H1341       H  0.25856246  0.19997064  0.64857541     0.16940
O1342       O  0.28026137  0.16697344  0.61658685    -0.60100
H1343       H  0.29726934  0.17017023  0.62527729     0.43930
H1344       H  0.22003594  0.13940918  0.71120304     0.43890
C1345       C  0.34413984  0.13611375  0.49964208    -0.05170
C1346       C  0.36388035  0.15516201  0.50070335    -0.32600
C1347       C  0.36861840  0.17138783  0.47899349     0.36650
C1348       C  0.35281573  0.16919177  0.45655097    -0.05530
C1349       C  0.33199257  0.15139974  0.45643335    -0.32500
C1350       C  0.32780494  0.13463594  0.47760806     0.36550
H1351       H  0.37654174  0.15634069  0.51760810     0.16920
O1352       O  0.38932231  0.18849127  0.47936897    -0.60000
H1353       H  0.32032190  0.14890130  0.43894529     0.16940
O1354       O  0.30919011  0.11524656  0.47582034    -0.60100
H1355       H  0.29245333  0.12434313  0.47199098     0.43930
H1356       H  0.40482487  0.17770348  0.47460665     0.43890
C1357       C  0.27045381  0.28563493  0.76173921    -0.05170
C1358       C  0.28066335  0.27749929  0.73746881    -0.32600
C1359       C  0.26598429  0.26166509  0.72065193     0.36650
C1360       C  0.24077967  0.25331609  0.72806764    -0.05530
C1361       C  0.23065594  0.26116776  0.75231600    -0.32500
C1362       C  0.24543816  0.27679826  0.76922989     0.36550
H1363       H  0.29967107  0.28426132  0.73109832     0.16920
O1364       O  0.27630713  0.25476261  0.69684244    -0.60000
H1365       H  0.21149339  0.25451485  0.75846655     0.16940
O1366       O  0.23550676  0.28273102  0.79339376    -0.60100
H1367       H  0.24357374  0.26976153  0.80543452     0.43930
H1368       H  0.26970937  0.26824229  0.68447273     0.43890
C1369       C  0.25960019  0.34516115  0.77047216    -0.05170
C1370       C  0.25708793  0.33877458  0.74363423    -0.32600
C1371       C  0.23881566  0.35101187  0.72719786     0.36650
C1372       C  0.22252138  0.37119820  0.73687716    -0.05530
C1373       C  0.22796029  0.38068478  0.76202126    -0.32500
C1374       C  0.24816351  0.36984577  0.77730016     0.36550
H1375       H  0.27050721  0.32552789  0.73431274     0.16920
O1376       O  0.23800427  0.34368272  0.70140577    -0.60000
H1377       H  0.21794528  0.39789706  0.76948012     0.16940
O1378       O  0.26102044  0.38684122  0.79358116    -0.60100
H1379       H  0.24749191  0.39686048  0.80341723     0.43930
H1380       H  0.24960760  0.35626238  0.69221035     0.43890
C1381       C  0.32374156  0.27101365  0.77821379    -0.05170
C1382       C  0.34312213  0.28117393  0.76158881    -0.32600
C1383       C  0.35901012  0.26435821  0.74682956     0.36650
C1384       C  0.35547624  0.23702887  0.74846373    -0.05530
C1385       C  0.33597216  0.22678848  0.76491026    -0.32500
C1386       C  0.32005812  0.24366581  0.77975657     0.36550
H1387       H  0.34592184  0.30227586  0.76017228     0.16920
O1388       O  0.37820643  0.27473522  0.73121708    -0.60000
H1389       H  0.33324410  0.20568282  0.76631761     0.16940
O1390       O  0.30112392  0.23337007  0.79572288    -0.60100
H1391       H  0.28546939  0.23147941  0.78447452     0.43930
H1392       H  0.36984782  0.27729829  0.71393555     0.43890
C1393       C  0.37032299  0.17390346  0.67444654    -0.05170
C1394       C  0.38855304  0.16624138  0.65512061    -0.32600
C1395       C  0.38219751  0.14714468  0.63647053     0.36650
C1396       C  0.35727413  0.13580413  0.63677045    -0.05530
C1397       C  0.33852323  0.14456632  0.65480251    -0.32500
C1398       C  0.34481318  0.16347627  0.67359107     0.36550
H1399       H  0.40821043  0.17415558  0.65532221     0.16920
O1400       O  0.40068297  0.13901778  0.61873594    -0.60000
H1401       H  0.31918433  0.13586123  0.65500164     0.16940
O1402       O  0.32669839  0.16963499  0.69246207    -0.60100
H1403       H  0.31390472  0.18143113  0.68375997     0.43930
H1404       H  0.39796563  0.15032129  0.60318339     0.43890
C1405       C  0.90509272  0.21910453  0.68727720    -0.05170
C1406       C  0.89787974  0.23939203  0.67015525    -0.32600
C1407       C  0.91529642  0.24823167  0.65082366     0.36650
C1408       C  0.94054511  0.23698115  0.64864543    -0.05530
C1409       C  0.94789882  0.21730013  0.66652994    -0.32500
C1410       C  0.93042983  0.20832453  0.68555490     0.36550
H1411       H  0.87832793  0.24764584  0.67107459     0.16920
O1412       O  0.90756111  0.26816211  0.63451301    -0.60000
H1413       H  0.96715150  0.20837542  0.66547615     0.16940
O1414       O  0.93798586  0.18828657  0.70186411    -0.60100
H1415       H  0.94435197  0.19713359  0.71791132     0.43930
H1416       H  0.89745026  0.25942804  0.62045690     0.43890
C1417       C  0.90745923  0.22194071  0.46034387    -0.05170
C1418       C  0.93315645  0.21258306  0.45977854    -0.32600
C1419       C  0.95060827  0.21883926  0.47979473     0.36650
C1420       C  0.94231357  0.23460958  0.50117040    -0.05530
C1421       C  0.91626758  0.24362602  0.50173810    -0.32500
C1422       C  0.89894904  0.23744559  0.48150130     0.36550
H1423       H  0.93949020  0.19964795  0.44411277     0.16920
O1424       O  0.97535946  0.20838308  0.47874475    -0.60000
H1425       H  0.90928750  0.25569332  0.51778554     0.16940
O1426       O  0.87328237  0.24516638  0.48338388    -0.60100
H1427       H  0.87248960  0.26268038  0.47489758     0.43930
H1428       H  0.98451228  0.21840886  0.46486187     0.43890
C1429       C  0.82522253  0.10878898  0.66249592    -0.05170
C1430       C  0.85041638  0.10472802  0.67245604    -0.32600
C1431       C  0.86104428  0.12255484  0.69046759     0.36650
C1432       C  0.84616142  0.14441059  0.69883849    -0.05530
C1433       C  0.82028789  0.14726355  0.69011475    -0.32500
C1434       C  0.80997144  0.12988825  0.67171206     0.36550
H1435       H  0.86222640  0.08843407  0.66540793     0.16920
O1436       O  0.88612366  0.11895700  0.69931371    -0.60000
H1437       H  0.80880180  0.16430090  0.69587085     0.16940
O1438       O  0.78558552  0.13463473  0.66158313    -0.60100
H1439       H  0.78853483  0.14622135  0.64627863     0.43930
H1440       H  0.89763294  0.12318603  0.68428068     0.43890
C1441       C  0.83044496  0.11579055  0.48472408    -0.05170
C1442       C  0.84923299  0.10912533  0.46585011    -0.32600
C1443       C  0.85683764  0.12767953  0.44709119     0.36650
C1444       C  0.84486228  0.15270238  0.44666188    -0.05530
C1445       C  0.82465263  0.15843764  0.46429689    -0.32500
C1446       C  0.81771234  0.14033431  0.48352416     0.36550
H1447       H  0.85873343  0.09002649  0.46637880     0.16920
O1448       O  0.87710654  0.12191058  0.43043981    -0.60000
H1449       H  0.81567874  0.17781304  0.46446903     0.16940
O1450       O  0.79844717  0.14677278  0.50113812    -0.60100
H1451       H  0.80754251  0.15606197  0.51553582     0.43930
H1452       H  0.86867708  0.11540107  0.41425018     0.43890
C1453       C  0.71898149  0.11458446  0.65284536    -0.05170
C1454       C  0.70025462  0.13302212  0.64394258    -0.32600
C1455       C  0.68964302  0.15202637  0.66067532     0.36650
C1456       C  0.69802946  0.15336781  0.68664531    -0.05530
C1457       C  0.71615314  0.13484362  0.69595142    -0.32500
C1458       C  0.72658865  0.11542192  0.67934736     0.36550
H1459       H  0.69367582  0.13280699  0.62383955     0.16920
O1460       O  0.67121691  0.16934300  0.65143282    -0.60000
H1461       H  0.72194226  0.13522682  0.71630772     0.16940
O1462       O  0.74367368  0.09710305  0.68931497    -0.60100
H1463       H  0.75905880  0.10712891  0.69555057     0.43930
H1464       H  0.65414454  0.16073652  0.65476245     0.43890
C1465       C  0.80302318  0.25708613  0.78723068    -0.05170
C1466       C  0.79459198  0.23148818  0.78087777    -0.32600
C1467       C  0.80947837  0.21492990  0.76475638     0.36650
C1468       C  0.83563629  0.22157418  0.75837276    -0.05530
C1469       C  0.84625982  0.24365536  0.77108810    -0.32500
C1470       C  0.83042191  0.26116099  0.78565745     0.36550
H1471       H  0.77518275  0.22496796  0.78606878     0.16920
O1472       O  0.79707126  0.19382425  0.75364241    -0.60000
H1473       H  0.86704625  0.24747120  0.76985164     0.16940
O1474       O  0.84233421  0.27963376  0.80112061    -0.60100
H1475       H  0.85657268  0.28755470  0.79053954     0.43930
H1476       H  0.79424279  0.18112186  0.76808747     0.43890
C1477       C  0.70625577  0.23249464  0.74573678    -0.05170
C1478       C  0.69498541  0.24987436  0.76423123    -0.32600
C1479       C  0.71066897  0.26497007  0.78117670     0.36650
C1480       C  0.73828925  0.26384506  0.77901691    -0.05530
C1481       C  0.74798326  0.25385220  0.75531927    -0.32500
C1482       C  0.73325881  0.23635833  0.74025112     0.36550
H1483       H  0.67403085  0.25087331  0.76687876     0.16920
O1484       O  0.69880111  0.28033839  0.79984549    -0.60000
H1485       H  0.76795787  0.25704389  0.74950240     0.16940
O1486       O  0.74657674  0.22180229  0.72202657    -0.60100
H1487       H  0.74932058  0.23384690  0.70702984     0.43930
H1488       H  0.68777452  0.26826232  0.81034164     0.43890
C1489       C  0.89599792  0.35910336  0.67420165    -0.05170
C1490       C  0.88720755  0.34855431  0.65042903    -0.32600
C1491       C  0.90513597  0.33729319  0.63259921     0.36650
C1492       C  0.93211935  0.33667119  0.63866148    -0.05530
C1493       C  0.94035640  0.34662167  0.66290079    -0.32500
C1494       C  0.92273912  0.35776570  0.68039370     0.36550
H1495       H  0.86664775  0.34960454  0.64545750     0.16920
O1496       O  0.89631810  0.32825503  0.60894304    -0.60000
H1497       H  0.96075520  0.34588271  0.66855235     0.16940
O1498       O  0.93181752  0.36707054  0.70389301    -0.60100
H1499       H  0.94013854  0.38422948  0.69988336     0.43930
H1500       H  0.88640827  0.31198626  0.61290971     0.43890
C1501       C  0.83776071  0.35244687  0.75156568    -0.05170
C1502       C  0.81576598  0.33895187  0.74216698    -0.32600
C1503       C  0.80084930  0.32268570  0.75858530     0.36650
C1504       C  0.80769782  0.31949638  0.78510359    -0.05530
C1505       C  0.83000578  0.33279650  0.79438132    -0.32500
C1506       C  0.84493493  0.34901452  0.77795140     0.36550
H1507       H  0.80983856  0.34133853  0.72199133     0.16920
O1508       O  0.77871023  0.31109534  0.74886176    -0.60000
H1509       H  0.83595865  0.33052220  0.81455043     0.16940
O1510       O  0.86671075  0.36110062  0.78788242    -0.60100
H1511       H  0.88146938  0.34910319  0.78365429     0.43930
H1512       H  0.78498621  0.29815368  0.73572386     0.43890
C1513       C  0.70494214  0.35605044  0.88486336    -0.05170
C1514       C  0.69890551  0.32911134  0.88279451    -0.32600
C1515       C  0.71009920  0.31323045  0.86309813     0.36650
C1516       C  0.73156172  0.32288298  0.84831804    -0.05530
C1517       C  0.73262158  0.35056711  0.84656403    -0.32500
C1518       C  0.72017774  0.36705552  0.86471094     0.36550
H1519       H  0.68488925  0.32014638  0.89581229     0.16920
O1520       O  0.69673638  0.29120443  0.85511699    -0.60000
H1521       H  0.74245547  0.35981658  0.83050348     0.16940
O1522       O  0.72174598  0.39386326  0.86152636    -0.60100
H1523       H  0.74057273  0.39827604  0.86314423     0.43930
H1524       H  0.68832213  0.28319535  0.87066550     0.43890
C1525       C  0.62967300  0.16916926  0.75190827    -0.05170
C1526       C  0.63226038  0.15982183  0.77753786    -0.32600
C1527       C  0.61337369  0.14304607  0.78815037     0.36650
C1528       C  0.59135328  0.13599370  0.77330949    -0.05530
C1529       C  0.58767346  0.14694171  0.74852466    -0.32500
C1530       C  0.60672309  0.16345573  0.73773388     0.36550
H1531       H  0.64994640  0.16371590  0.78849943     0.16920
O1532       O  0.61743019  0.13223538  0.81234969    -0.60000
H1533       H  0.57070443  0.14162792  0.73703348     0.16940
O1534       O  0.60334475  0.17316294  0.71294251    -0.60100
H1535       H  0.60629266  0.15798802  0.70105793     0.43930
H1536       H  0.62708499  0.11557773  0.80907640     0.43890
C1537       C  0.46685194  0.13889288  0.76876368    -0.05170
C1538       C  0.44690580  0.14959723  0.78426991    -0.32600
C1539       C  0.42949941  0.16809022  0.77392167     0.36650
C1540       C  0.43237210  0.17641532  0.74775287    -0.05530
C1541       C  0.45403961  0.16736528  0.73318401    -0.32500
C1542       C  0.47084697  0.14822313  0.74333482     0.36550
H1543       H  0.44379717  0.14233936  0.80394902     0.16920
O1544       O  0.40824911  0.17556937  0.78859568    -0.60000
H1545       H  0.45688731  0.17383161  0.71321305     0.16940
O1546       O  0.49067416  0.13828449  0.72810841    -0.60100
H1547       H  0.48278092  0.12341093  0.71835918     0.43930
H1548       H  0.41512136  0.18825945  0.80161777     0.43890
C1549       C  0.70632001  0.22878813  0.88177080    -0.05170
C1550       C  0.70819468  0.22135125  0.85529648    -0.32600
C1551       C  0.72436734  0.23476285  0.83757265     0.36650
C1552       C  0.73689712  0.25840452  0.84521554    -0.05530
C1553       C  0.73955081  0.26242657  0.87239620    -0.32500
C1554       C  0.72472734  0.24777014  0.89055274     0.36550
H1555       H  0.69683271  0.20536975  0.84746426     0.16920
O1556       O  0.72909347  0.22347629  0.81362904    -0.60000
H1557       H  0.75179364  0.27821711  0.87958311     0.16940
O1558       O  0.72816072  0.25279969  0.91662623    -0.60100
H1559       H  0.73982669  0.23854503  0.92295452     0.43930
H1560       H  0.71200408  0.21761040  0.80658752     0.43890
C1561       C  0.63146704  0.16503065  0.89497675    -0.05170
C1562       C  0.62831345  0.14099739  0.90803815    -0.32600
C1563       C  0.60995869  0.12239919  0.89937398     0.36650
C1564       C  0.59366437  0.12806394  0.87776123    -0.05530
C1565       C  0.59649317  0.15255966  0.86522481    -0.32500
C1566       C  0.61540606  0.17070882  0.87339936     0.36550
H1567       H  0.64009928  0.13666956  0.92508054     0.16920
O1568       O  0.60752690  0.09915197  0.91276424    -0.60000
H1569       H  0.58439949  0.15751328  0.84857109     0.16940
O1570       O  0.61734940  0.19445478  0.86080425    -0.60100
H1571       H  0.62949751  0.19123736  0.84599902     0.43930
H1572       H  0.62275339  0.08832266  0.90725954     0.43890
C1573       C  0.36255153  0.25002998  0.86998299    -0.05170
C1574       C  0.37384644  0.26184439  0.84785117    -0.32600
C1575       C  0.35881235  0.27752473  0.83082124     0.36650
C1576       C  0.33168140  0.28061892  0.83499308    -0.05530
C1577       C  0.32039585  0.26834899  0.85692181    -0.32500
C1578       C  0.33561253  0.25365554  0.87453782     0.36550
H1579       H  0.39463098  0.25964834  0.84426371     0.16920
O1580       O  0.37100644  0.29029428  0.81066015    -0.60000
H1581       H  0.29963955  0.27058213  0.86064202     0.16940
O1582       O  0.32386267  0.24242826  0.89588886    -0.60100
H1583       H  0.32264812  0.25673668  0.90905353     0.43930
H1584       H  0.37825265  0.30658222  0.81847208     0.43890
C1585       C  0.42528015  0.17512169  0.88854273    -0.05170
C1586       C  0.45216185  0.17469433  0.89444604    -0.32600
C1587       C  0.46811096  0.15350544  0.88699203     0.36650
C1588       C  0.45735069  0.13188394  0.87366690    -0.05530
C1589       C  0.43042755  0.13192569  0.86807036    -0.32500
C1590       C  0.41446793  0.15345550  0.87511857     0.36550
H1591       H  0.46099883  0.19109160  0.90468133     0.16920
O1592       O  0.49412298  0.15374152  0.89351806    -0.60000
H1593       H  0.42187120  0.11552915  0.85758945     0.16940
O1594       O  0.38823719  0.15272021  0.86961001    -0.60100
H1595       H  0.38692613  0.15635265  0.85061819     0.43930
H1596       H  0.50267815  0.16480438  0.88004869     0.43890
C1597       C  0.34259899  0.23306679  0.25458547    -0.05170
C1598       C  0.35439579  0.24625882  0.27559732    -0.32600
C1599       C  0.33956343  0.26249092  0.29226414     0.36650
C1600       C  0.31259189  0.26569902  0.28784757    -0.05530
C1601       C  0.30090088  0.25257079  0.26670458    -0.32500
C1602       C  0.31568553  0.23629798  0.25018195     0.36550
H1603       H  0.37523652  0.24420884  0.27886038     0.16920
O1604       O  0.35165542  0.27592202  0.31210649    -0.60000
H1605       H  0.28013889  0.25489119  0.26311843     0.16940
O1606       O  0.30377982  0.22397536  0.22954954    -0.60100
H1607       H  0.29827378  0.20658613  0.23639565     0.43930
H1608       H  0.35813706  0.26222892  0.32430930     0.43890
C1609       C  0.61106611  0.25591076  0.99881930    -0.05170
C1610       C  0.63252044  0.23966093  0.00464651    -0.32600
C1611       C  0.64839179  0.22966883  0.98445447     0.36650
C1612       C  0.64316937  0.23645356  0.95828324    -0.05530
C1613       C  0.62291160  0.25416910  0.95276532    -0.32500
C1614       C  0.60677346  0.26370508  0.97275322     0.36550
H1615       H  0.63605423  0.23355626  0.02460760     0.16920
O1616       O  0.66782064  0.21196824  0.99027342    -0.60000
H1617       H  0.61859790  0.25935977  0.93269193     0.16940
O1618       O  0.58659455  0.28048581  0.96665668    -0.60100
H1619       H  0.57326889  0.26934143  0.95800557     0.43930
H1620       H  0.68402005  0.22259804  0.99135510     0.43890
C1621       C  0.43642560  0.25934852  0.00157026    -0.05170
C1622       C  0.43237731  0.27640441  0.98042841    -0.32600
C1623       C  0.41852123  0.26812879  0.95828941     0.36650
C1624       C  0.40838631  0.24231926  0.95702542    -0.05530
C1625       C  0.41080704  0.22599406  0.97917569    -0.32500
C1626       C  0.42473116  0.23435173  0.00130011     0.36550
H1627       H  0.44151902  0.29563220  0.98033315     0.16920
O1628       O  0.41697414  0.28468791  0.93719392    -0.60000
H1629       H  0.40318119  0.20611332  0.97870396     0.16940
O1630       O  0.42852116  0.21722359  0.02164725    -0.60100
H1631       H  0.41454666  0.22152817  0.03443717     0.43930
H1632       H  0.43274247  0.28077105  0.92653876     0.43890
C1633       C  0.43769434  0.35372178  0.14262686    -0.05170
C1634       C  0.44444999  0.36516392  0.16683793    -0.32600
C1635       C  0.42512991  0.37417840  0.18416917     0.36650
C1636       C  0.39867156  0.37201870  0.17738984    -0.05530
C1637       C  0.39175852  0.36087785  0.15338658    -0.32500
C1638       C  0.41088694  0.35165660  0.13609955     0.36550
H1639       H  0.46475569  0.36696492  0.17253979     0.16920
O1640       O  0.43228030  0.38544060  0.20744050    -0.60000
H1641       H  0.37132319  0.35942204  0.14797718     0.16940
O1642       O  0.40302746  0.34123339  0.11266933    -0.60100
H1643       H  0.39853745  0.32264327  0.11650520     0.43930
H1644       H  0.43218970  0.37081415  0.22026342     0.43890
C1645       C  0.40515407  0.23015182  0.18061648    -0.05170
C1646       C  0.39572975  0.23698495  0.15580269    -0.32600
C1647       C  0.41265903  0.24774003  0.13694604     0.36650
C1648       C  0.43939713  0.25144115  0.14289437    -0.05530
C1649       C  0.44823251  0.24548480  0.16820305    -0.32500
C1650       C  0.43144132  0.23491921  0.18685532     0.36550
H1651       H  0.37549448  0.23324337  0.15081915     0.16920
O1652       O  0.40318147  0.25322528  0.11250231    -0.60000
H1653       H  0.46842149  0.24881810  0.17365156     0.16940
O1654       O  0.44087078  0.22927643  0.21131986    -0.60100
H1655       H  0.45029321  0.21226613  0.20946136     0.43930
H1656       H  0.39520067  0.27099428  0.11397057     0.43890
C1657       C  0.61590185  0.24968687  0.13623278    -0.05170
C1658       C  0.63191353  0.22834419  0.12931820    -0.32600
C1659       C  0.65072339  0.21884569  0.14688169     0.36650
C1660       C  0.65386954  0.23102149  0.17147929    -0.05530
C1661       C  0.63897125  0.25346751  0.17752199    -0.32500
C1662       C  0.61989912  0.26264007  0.16020047     0.36550
H1663       H  0.62915027  0.21846421  0.11075542     0.16920
O1664       O  0.66491025  0.19678279  0.14050071    -0.60000
H1665       H  0.64084440  0.26279474  0.19648315     0.16940
O1666       O  0.60489654  0.28403390  0.16703258    -0.60100
H1667       H  0.58955995  0.27666114  0.17636097     0.43930
H1668       H  0.68161097  0.20349914  0.13326996     0.43890
C1669       C  0.61094459  0.35366964  0.00250228    -0.05170
C1670       C  0.60567607  0.37695106  0.98855801    -0.32600
C1671       C  0.62177038  0.38484460  0.96795007     0.36650
C1672       C  0.64341634  0.36932236  0.96075394    -0.05530
C1673       C  0.64849269  0.34582318  0.97421543    -0.32500
C1674       C  0.63259625  0.33802761  0.99508949     0.36550
H1675       H  0.58901093  0.38916089  0.99368274     0.16920
O1676       O  0.61655496  0.40806804  0.95530027    -0.60000
H1677       H  0.66541342  0.33395648  0.96911661     0.16940
O1678       O  0.63791748  0.31468143  0.00746058    -0.60100
H1679       H  0.65119404  0.31903428  0.02087438     0.43930
H1680       H  0.60586845  0.40306240  0.93993802     0.43890
C1681       C  0.60934645  0.12155572  0.24520602    -0.05170
C1682       C  0.63580185  0.11496335  0.24067723    -0.32600
C1683       C  0.65447268  0.13462721  0.23554153     0.36650
C1684       C  0.64689495  0.16127735  0.23539037    -0.05530
C1685       C  0.62080406  0.16785379  0.24072132    -0.32500
C1686       C  0.60213093  0.14842567  0.24540557     0.36550
H1687       H  0.64194787  0.09452465  0.24079600     0.16920
O1688       O  0.67968750  0.12755750  0.22957603    -0.60000
H1689       H  0.61468566  0.18832025  0.24046895     0.16940
O1690       O  0.57704031  0.15610820  0.25117319    -0.60100
H1691       H  0.56909813  0.16078492  0.23412779     0.43930
H1692       H  0.68916123  0.12801094  0.24645597     0.43890
C1693       C  0.43208093  0.11270417  0.25465721    -0.05170
C1694       C  0.42431289  0.11373210  0.22846758    -0.32600
C1695       C  0.40667651  0.13317838  0.21990749     0.36650
C1696       C  0.39743693  0.15263688  0.23754891    -0.05530
C1697       C  0.40388208  0.15018227  0.26412681    -0.32500
C1698       C  0.42070288  0.13021522  0.27270482     0.36550
H1699       H  0.43239563  0.09983255  0.21451681     0.16920
O1700       O  0.39854907  0.13309348  0.19433657    -0.60000
H1701       H  0.39731753  0.16475578  0.27816836     0.16940
O1702       O  0.42767948  0.12939450  0.29849694    -0.60100
H1703       H  0.41378606  0.11893077  0.30712134     0.43930
H1704       H  0.41456137  0.13541206  0.18360755     0.43890
C1705       C  0.44337430  0.11848621  0.35603691    -0.05170
C1706       C  0.42119904  0.10785193  0.36815108    -0.32600
C1707       C  0.40257055  0.12431478  0.37982910     0.36650
C1708       C  0.40561331  0.15187248  0.37885454    -0.05530
C1709       C  0.42727916  0.16260858  0.36602862    -0.32500
C1710       C  0.44630470  0.14614374  0.35495141     0.36550
H1711       H  0.41853316  0.08670595  0.36900179     0.16920
O1712       O  0.38104374  0.11337597  0.39157928    -0.60000
H1713       H  0.42968721  0.18378313  0.36503960     0.16940
O1714       O  0.46708887  0.15727334  0.34210808    -0.60100
H1715       H  0.47953659  0.16242809  0.35602878     0.43930
H1716       H  0.38735953  0.10652122  0.40858205     0.43890
C1717       C  0.72515232  0.14668852  0.43322723    -0.05170
C1718       C  0.70705586  0.14514411  0.45389044    -0.32600
C1719       C  0.71256356  0.13018500  0.47616011     0.36650
C1720       C  0.73626799  0.11613788  0.47767837    -0.05530
C1721       C  0.75489267  0.11893814  0.45760899    -0.32500
C1722       C  0.74951958  0.13403453  0.43554875     0.36550
H1723       H  0.68818243  0.15477489  0.45227858     0.16920
O1724       O  0.69395534  0.12797154  0.49535762    -0.60000
H1725       H  0.77355335  0.10881566  0.45867702     0.16940
O1726       O  0.76762993  0.13501986  0.41575218    -0.60100
H1727       H  0.76348799  0.11987880  0.40423414     0.43930
H1728       H  0.69659483  0.14349590  0.50682162     0.43890
C1729       C  0.66433701  0.14370166  0.35916427    -0.05170
C1730       C  0.66734215  0.11774286  0.35077708    -0.32600
C1731       C  0.64592385  0.10353589  0.34198706     0.36650
C1732       C  0.62071261  0.11505978  0.34226938    -0.05530
C1733       C  0.61788226  0.14145208  0.35016882    -0.32500
C1734       C  0.63968315  0.15590785  0.35829454     0.36550
H1735       H  0.68636688  0.10827390  0.35155298     0.16920
O1736       O  0.64976977  0.07798093  0.33422979    -0.60000
H1737       H  0.59884323  0.15087620  0.34996005     0.16940
O1738       O  0.63658917  0.18149684  0.36634506    -0.60100
H1739       H  0.64052630  0.19231846  0.35071179     0.43930
H1740       H  0.65640051  0.07909377  0.31603801     0.43890
C1741       C  0.75064254  0.26275057  0.27759134    -0.05170
C1742       C  0.72436397  0.26151218  0.28553807    -0.32600
C1743       C  0.70615702  0.24644431  0.27143364     0.36650
C1744       C  0.71394058  0.23288070  0.24865202    -0.05530
C1745       C  0.74019587  0.23410624  0.24074198    -0.32500
C1746       C  0.75856399  0.24862832  0.25518624     0.36550
H1747       H  0.71805270  0.27201738  0.30288224     0.16920
O1748       O  0.68063299  0.24565209  0.27964689    -0.60000
H1749       H  0.74651530  0.22356444  0.22341171     0.16940
O1750       O  0.78448814  0.24805020  0.24806534    -0.60100
H1751       H  0.78524604  0.25483041  0.22991938     0.43930
H1752       H  0.67989131  0.23093055  0.29234430     0.43890
C1753       C  0.76725751  0.24325604  0.32840821    -0.05170
C1754       C  0.74908819  0.25005842  0.34777983    -0.32600
C1755       C  0.73585783  0.23065780  0.36155826     0.36650
C1756       C  0.74011093  0.20409608  0.35539992    -0.05530
C1757       C  0.75786195  0.19710133  0.33558682    -0.32500
C1758       C  0.77161074  0.21668454  0.32207557     0.36550
H1759       H  0.74543940  0.27058568  0.35241154     0.16920
O1760       O  0.71836608  0.23778697  0.38067355    -0.60000
H1761       H  0.76104578  0.17656359  0.33072290     0.16940
O1762       O  0.78942792  0.20981877  0.30317607    -0.60100
H1763       H  0.77884599  0.20503450  0.28767478     0.43930
H1764       H  0.72878045  0.23861732  0.39698075     0.43890
C1765       C  0.81622924  0.26156657  0.35008501    -0.05170
C1766       C  0.83663932  0.24452723  0.34269680    -0.32600
C1767       C  0.84976019  0.22927319  0.36136909     0.36650
C1768       C  0.84255032  0.23100792  0.38783077    -0.05530
C1769       C  0.82229917  0.24808582  0.39529435    -0.32500
C1770       C  0.80888739  0.26308938  0.37658250     0.36550
H1771       H  0.84224375  0.24294044  0.32232418     0.16920
O1772       O  0.86929232  0.21242453  0.35356087    -0.60000
H1773       H  0.81664350  0.24950754  0.41566609     0.16940
O1774       O  0.78880486  0.27928821  0.38431290    -0.60100
H1775       H  0.77574338  0.26774365  0.39287867     0.43930
H1776       H  0.88563801  0.22279307  0.35492645     0.43890
C1777       C  0.72948435  0.35063462  0.23809415    -0.05170
C1778       C  0.73138449  0.35537765  0.26496688    -0.32600
C1779       C  0.74759170  0.33971852  0.28062192     0.36650
C1780       C  0.76254569  0.31929506  0.26931244    -0.05530
C1781       C  0.76074287  0.31466275  0.24236391    -0.32500
C1782       C  0.74401748  0.32993120  0.22682106     0.36550
H1783       H  0.72021359  0.37122999  0.27382332     0.16920
O1784       O  0.74809987  0.34382147  0.30714017    -0.60000
H1785       H  0.77239706  0.29936064  0.23334356     0.16940
O1786       O  0.74274299  0.32518301  0.20047448    -0.60100
H1787       H  0.72911267  0.31148009  0.19843767     0.43930
H1788       H  0.75556350  0.36164909  0.30958576     0.43890
C1789       C  0.65607280  0.36627322  0.17545753    -0.05170
C1790       C  0.63027306  0.37392569  0.18058589    -0.32600
C1791       C  0.60996408  0.36652350  0.16378684     0.36650
C1792       C  0.61535889  0.35131012  0.14110028    -0.05530
C1793       C  0.64144663  0.34372968  0.13621267    -0.32500
C1794       C  0.66161288  0.35103082  0.15318696     0.36550
H1795       H  0.62589334  0.38589532  0.19759811     0.16920
O1796       O  0.58495529  0.37410545  0.17004383    -0.60000
H1797       H  0.64636203  0.33203075  0.11917696     0.16940
O1798       O  0.68688855  0.34404773  0.14731127    -0.60100
H1799       H  0.68976846  0.32700087  0.15631050     0.43930
H1800       H  0.58272138  0.39175342  0.16205710     0.43890
C1801       C  0.64303515  0.93234550  0.23844963    -0.05170
C1802       C  0.63525311  0.94975630  0.21840802    -0.32600
C1803       C  0.61992450  0.97200619  0.22392777     0.36650
C1804       C  0.61276894  0.97752595  0.24979966    -0.05530
C1805       C  0.62240868  0.96163238  0.27002478    -0.32500
C1806       C  0.63718370  0.93899713  0.26456364     0.36550
H1807       H  0.63966716  0.94513345  0.19819481     0.16920
O1808       O  0.61087413  0.98736167  0.20384870    -0.60000
H1809       H  0.61685618  0.96578511  0.29001693     0.16940
O1810       O  0.64391919  0.92251491  0.28469005    -0.60100
H1811       H  0.62875037  0.91059666  0.28695240     0.43930
H1812       H  0.62378642  0.00179779  0.20217083     0.43890
C1813       C  0.41335319  0.92633819  0.25267917    -0.05170
C1814       C  0.43065371  0.92553235  0.27379885    -0.32600
C1815       C  0.44437460  0.94801899  0.28117369     0.36650
C1816       C  0.44023590  0.97192267  0.26789825    -0.05530
C1817       C  0.42134790  0.97331625  0.24812038    -0.32500
C1818       C  0.40799226  0.95051954  0.24032200     0.36550
H1819       H  0.43490296  0.90698705  0.28339102     0.16920
O1820       O  0.46273251  0.94623633  0.30062322    -0.60000
H1821       H  0.41829043  0.99156149  0.23758741     0.16940
O1822       O  0.39100783  0.95169434  0.21966266    -0.60100
H1823       H  0.37347350  0.95407989  0.22765823     0.43930
H1824       H  0.47869501  0.93916675  0.29204727     0.43890
C1825       C  0.62791079  0.85213696  0.18595399    -0.05170
C1826       C  0.61651098  0.82769795  0.19161643    -0.32600
C1827       C  0.59896692  0.81602513  0.17411999     0.36650
C1828       C  0.59276087  0.82873706  0.15040599    -0.05530
C1829       C  0.60486057  0.85279023  0.14447413    -0.32500
C1830       C  0.62218391  0.86453254  0.16200086     0.36550
H1831       H  0.62075399  0.81790054  0.20992719     0.16920
O1832       O  0.58886891  0.79173783  0.17992896    -0.60000
H1833       H  0.60081288  0.86268870  0.12616897     0.16940
O1834       O  0.63411471  0.88774767  0.15522744    -0.60100
H1835       H  0.62009267  0.90129924  0.15556439     0.43930
H1836       H  0.57378691  0.79526615  0.19164552     0.43890
C1837       C  0.46209863  0.82887621  0.15259777    -0.05170
C1838       C  0.45111642  0.85396624  0.14870190    -0.32600
C1839       C  0.43509843  0.86569070  0.16779692     0.36650
C1840       C  0.42938294  0.85210809  0.19118929    -0.05530
C1841       C  0.43999262  0.82681208  0.19480525    -0.32500
C1842       C  0.45621568  0.81524987  0.17588431     0.36550
H1843       H  0.45504054  0.86463582  0.13080256     0.16920
O1844       O  0.42417736  0.88991419  0.16289939    -0.60000
H1845       H  0.43597294  0.81599017  0.21258690     0.16940
O1846       O  0.46515570  0.79006540  0.17982974    -0.60100
H1847       H  0.48060947  0.79191188  0.19135518     0.43930
H1848       H  0.43889670  0.90258489  0.16351177     0.43890
C1849       C  0.64510250  0.71468722  0.18371602    -0.05170
C1850       C  0.62072092  0.72035787  0.19528553    -0.32600
C1851       C  0.59879986  0.72654246  0.17963773     0.36650
C1852       C  0.60127962  0.72711462  0.15213037    -0.05530
C1853       C  0.62606843  0.72225458  0.14109016    -0.32500
C1854       C  0.64760912  0.71610920  0.15644441     0.36550
H1855       H  0.61856263  0.71939884  0.21631843     0.16920
O1856       O  0.57521504  0.73170713  0.19138565    -0.60000
H1857       H  0.62912140  0.72345389  0.12021128     0.16940
O1858       O  0.67141690  0.71206105  0.14459079    -0.60100
H1859       H  0.67036274  0.69430471  0.13655572     0.43930
H1860       H  0.56619206  0.71446898  0.19222644     0.43890
C1861       C  0.74039858  0.82416257  0.27839027    -0.05170
C1862       C  0.71415854  0.81685964  0.28181257    -0.32600
C1863       C  0.69408591  0.83022188  0.26862736     0.36650
C1864       C  0.70000443  0.85169388  0.25225550    -0.05530
C1865       C  0.72621076  0.85896067  0.24875041    -0.32500
C1866       C  0.74635982  0.84525638  0.26155918     0.36550
H1867       H  0.70918594  0.80104182  0.29506691     0.16920
O1868       O  0.66861860  0.82278920  0.27256908    -0.60000
H1869       H  0.73107432  0.87510948  0.23582152     0.16940
O1870       O  0.77193262  0.85209372  0.25710968    -0.60100
H1871       H  0.77370145  0.87034020  0.26375516     0.43930
H1872       H  0.66583133  0.80767454  0.26060954     0.43890
C1873       C  0.75450550  0.76931904  0.26929664    -0.05170
C1874       C  0.73530287  0.75371850  0.28134265    -0.32600
C1875       C  0.71942734  0.73695204  0.26659957     0.36650
C1876       C  0.72275614  0.73533561  0.23940188    -0.05530
C1877       C  0.74167110  0.75121075  0.22719398    -0.32500
C1878       C  0.75742388  0.76829039  0.24198139     0.36550
H1879       H  0.73287148  0.75437901  0.30237348     0.16920
O1880       O  0.70128836  0.72154263  0.27902812    -0.60000
H1881       H  0.74433236  0.75016860  0.20621388     0.16940
O1882       O  0.77565502  0.78369627  0.22970200    -0.60100
H1883       H  0.79152638  0.77250549  0.22826912     0.43930
H1884       H  0.68500625  0.73220961  0.27925875     0.43890
C1885       C  0.85127470  0.74082808  0.37893039    -0.05170
C1886       C  0.83982120  0.72850319  0.35706861    -0.32600
C1887       C  0.82204292  0.74169747  0.34052984     0.36650
C1888       C  0.81750120  0.76920301  0.34333335    -0.05530
C1889       C  0.82415476  0.77892475  0.36824687    -0.32500
C1890       C  0.84096313  0.76592075  0.38540375     0.36550
H1891       H  0.84233638  0.70761256  0.35394705     0.16920
O1892       O  0.80494799  0.72648897  0.32649749    -0.60000
H1893       H  0.81442388  0.79531944  0.37676672     0.16940
O1894       O  0.84416273  0.77712268  0.40953076    -0.60100
H1895       H  0.85545513  0.79272110  0.40663951     0.43930
H1896       H  0.81530644  0.71203232  0.31841457     0.43890
C1897       C  0.72801260  0.94749871  0.43139812    -0.05170
C1898       C  0.74163479  0.97101682  0.42802236    -0.32600
C1899       C  0.74620057  0.98774597  0.44907310     0.36650
C1900       C  0.73716155  0.98094403  0.47440845    -0.05530
C1901       C  0.72442907  0.95662462  0.47783411    -0.32500
C1902       C  0.71970592  0.94003583  0.45647125     0.36550
H1903       H  0.74741098  0.97721596  0.40858716     0.16920
O1904       O  0.75861915  0.01116724  0.44425280    -0.60000
H1905       H  0.71766823  0.95062201  0.49698400     0.16940
O1906       O  0.70565723  0.91735812  0.46000618    -0.60100
H1907       H  0.71895666  0.90320131  0.46167329     0.43930
H1908       H  0.77755222  0.00684531  0.44405420     0.43890
C1909       C  0.66293638  0.95590287  0.36284626    -0.05170
C1910       C  0.66469492  0.98346276  0.36419373    -0.32600
C1911       C  0.64420394  0.99939143  0.35560132     0.36650
C1912       C  0.62143044  0.98777099  0.34575970    -0.05530
C1913       C  0.61953922  0.96019111  0.34442292    -0.32500
C1914       C  0.64026694  0.94422371  0.35264252     0.36550
H1915       H  0.68204482  0.99271717  0.37210439     0.16920
O1916       O  0.64599997  0.02620558  0.35816078    -0.60000
H1917       H  0.60203468  0.95104984  0.33673507     0.16940
O1918       O  0.63798657  0.91736068  0.35110270    -0.60100
H1919       H  0.63095894  0.91185234  0.36831299     0.43930
H1920       H  0.66102470  0.03135523  0.34702823     0.43890
C1921       C  0.73340148  0.88832012  0.35324235    -0.05170
C1922       C  0.75725505  0.89323287  0.34056906    -0.32600
C1923       C  0.76989375  0.87316873  0.32638156     0.36650
C1924       C  0.75898747  0.84771378  0.32579071    -0.05530
C1925       C  0.73484911  0.84318670  0.33808586    -0.32500
C1926       C  0.72199596  0.86328969  0.35154517     0.36550
H1927       H  0.76610364  0.91255386  0.34181385     0.16920
O1928       O  0.79361513  0.87795904  0.31473847    -0.60000
H1929       H  0.72639382  0.82364409  0.33800541     0.16940
O1930       O  0.69858992  0.85813118  0.36362024    -0.60100
H1931       H  0.70323342  0.85281695  0.38166903     0.43930
H1932       H  0.79039928  0.89212608  0.30181187     0.43890
C1933       C  0.73759031  0.61143928  0.15544133    -0.05170
C1934       C  0.71471413  0.60686964  0.16981083    -0.32600
C1935       C  0.70445697  0.62652741  0.18632427     0.36650
C1936       C  0.71727060  0.65106272  0.18862010    -0.05530
C1937       C  0.74110828  0.65473358  0.17544569    -0.32500
C1938       C  0.75121976  0.63517500  0.15894901     0.36550
H1939       H  0.70423144  0.58851354  0.16741499     0.16920
O1940       O  0.68184182  0.62175394  0.20000460    -0.60000
H1941       H  0.75113153  0.67346881  0.17659920     0.16940
O1942       O  0.77357060  0.64009287  0.14493001    -0.60100
H1943       H  0.78809084  0.63764642  0.15750262     0.43930
H1944       H  0.66782718  0.62046438  0.18669227     0.43890
C1945       C  0.74256525  0.47329670  0.15522411    -0.05170
C1946       C  0.72699163  0.47950918  0.17702091    -0.32600
C1947       C  0.71725122  0.45929364  0.19304467     0.36650
C1948       C  0.72354289  0.43288019  0.18737474    -0.05530
C1949       C  0.74072883  0.42705950  0.16688431    -0.32500
C1950       C  0.75001211  0.44696607  0.15069261     0.36550
H1951       H  0.72123305  0.49972944  0.18070750     0.16920
O1952       O  0.70064842  0.46535793  0.21324964    -0.60000
H1953       H  0.74571736  0.40676164  0.16245221     0.16940
O1954       O  0.76606272  0.44052383  0.13009427    -0.60100
H1955       H  0.75474368  0.43118279  0.11741254     0.43930
H1956       H  0.71199550  0.46649698  0.22890129     0.43890
C1957       C  0.73812029  0.46884740  0.98189995    -0.05170
C1958       C  0.73840572  0.44260138  0.99051780    -0.32600
C1959       C  0.72787180  0.42260262  0.97526819     0.36650
C1960       C  0.71701623  0.42853185  0.95079903    -0.05530
C1961       C  0.71823216  0.45436675  0.94118483    -0.32500
C1962       C  0.72897791  0.47456132  0.95653823     0.36550
H1963       H  0.74605729  0.43761119  0.00962211     0.16920
O1964       O  0.72728358  0.39735509  0.98482866    -0.60000
H1965       H  0.70959697  0.45909759  0.92244931     0.16940
O1966       O  0.72854650  0.49994336  0.94743527    -0.60100
H1967       H  0.74500439  0.50190609  0.93734579     0.43930
H1968       H  0.71227712  0.39693164  0.99713937     0.43890
C1969       C  0.84308435  0.72003212  0.25525915    -0.05170
C1970       C  0.85321865  0.74389776  0.26467672    -0.32600
C1971       C  0.83740813  0.76184692  0.27852683     0.36650
C1972       C  0.81075516  0.75636310  0.28324337    -0.05530
C1973       C  0.80057693  0.73267182  0.27310645    -0.32500
C1974       C  0.81634946  0.71466615  0.25946894     0.36550
H1975       H  0.87360525  0.74865756  0.26141466     0.16920
O1976       O  0.84818313  0.78494719  0.28706831    -0.60000
H1977       H  0.78076438  0.72685151  0.27747336     0.16940
O1978       O  0.80586644  0.69089017  0.25227288    -0.60100
H1979       H  0.79342105  0.69495472  0.23797366     0.43930
H1980       H  0.86043406  0.77972211  0.30115342     0.43890
C1981       C  0.85723336  0.64870934  0.18900019    -0.05170
C1982       C  0.84156150  0.62744459  0.19636380    -0.32600
C1983       C  0.83320116  0.60898885  0.17790501     0.36650
C1984       C  0.84024918  0.61181074  0.15125897    -0.05530
C1985       C  0.85610656  0.63332177  0.14408021    -0.32500
C1986       C  0.86462708  0.65158896  0.16274432     0.36550
H1987       H  0.83609245  0.62493105  0.21667947     0.16920
O1988       O  0.81761578  0.58870248  0.18619555    -0.60000
H1989       H  0.86188168  0.63615220  0.12390953     0.16940
O1990       O  0.88048027  0.67196524  0.15522352    -0.60100
H1991       H  0.86843143  0.68684432  0.15154218     0.43930
H1992       H  0.82990315  0.57462421  0.19171758     0.43890
C1993       C  0.81571808  0.33543084  0.28592030    -0.05170
C1994       C  0.82814435  0.32912391  0.26223559    -0.32600
C1995       C  0.84378191  0.34749161  0.24933059     0.36650
C1996       C  0.84743363  0.37267922  0.26009029    -0.05530
C1997       C  0.83481006  0.37933573  0.28353747    -0.32500
C1998       C  0.81885913  0.36092193  0.29648201     0.36550
H1999       H  0.82591629  0.30964614  0.25384513     0.16920
O2000       O  0.85540144  0.34068774  0.22609119    -0.60000
H2001       H  0.83697069  0.39896689  0.29155871     0.16940
O2002       O  0.80549335  0.36830467  0.31859636    -0.60100
H2003       H  0.81871571  0.37570768  0.33069384     0.43930
H2004       H  0.87294394  0.33387692  0.23088843     0.43890
C2005       C  0.83904588  0.47338377  0.14991267    -0.05170
C2006       C  0.84440408  0.48222767  0.17528420    -0.32600
C2007       C  0.85360687  0.46477077  0.19433960     0.36650
C2008       C  0.85710821  0.43790462  0.18828615    -0.05530
C2009       C  0.85090356  0.42872539  0.16332316    -0.32500
C2010       C  0.84200232  0.44624356  0.14411736     0.36550
H2011       H  0.84180323  0.50281058  0.18031676     0.16920
O2012       O  0.85847608  0.47384457  0.21915542    -0.60000
H2013       H  0.85331524  0.40804475  0.15861824     0.16940
O2014       O  0.83524404  0.43644135  0.12008727    -0.60100
H2015       H  0.85204482  0.43362722  0.11076007     0.43930
H2016       H  0.87174060  0.48792005  0.21722937     0.43890
C2017       C  0.21796372  0.37413023  0.26252330    -0.05170
C2018       C  0.24234132  0.38161841  0.27267230    -0.32600
C2019       C  0.25714545  0.36410158  0.28805704     0.36650
C2020       C  0.24757452  0.33860450  0.29332220    -0.05530
C2021       C  0.22297689  0.33141349  0.28353869    -0.32500
C2022       C  0.20828587  0.34883345  0.26824651     0.36550
H2023       H  0.24982305  0.40118084  0.26884651     0.16920
O2024       O  0.28057892  0.37214413  0.29836133    -0.60000
H2025       H  0.21542200  0.31184904  0.28725238     0.16940
O2026       O  0.18463817  0.34074939  0.25854871    -0.60100
H2027       H  0.18860011  0.33338262  0.24102023     0.43930
H2028       H  0.29127083  0.37830343  0.28339092     0.43890
C2029       C  0.92465610  0.66374346  0.25631181    -0.05170
C2030       C  0.92372208  0.65891206  0.28333303    -0.32600
C2031       C  0.94343568  0.64428953  0.29559331     0.36650
C2032       C  0.96465626  0.63453313  0.28097019    -0.05530
C2033       C  0.96665994  0.64078776  0.25442491    -0.32500
C2034       C  0.94695962  0.65546812  0.24206044     0.36550
H2035       H  0.90676261  0.66478678  0.29467292     0.16920
O2036       O  0.94089022  0.63809261  0.32153034    -0.60000
H2037       H  0.98300314  0.63339346  0.24303216     0.16940
O2038       O  0.94947923  0.66148046  0.21601982    -0.60100
H2039       H  0.94912322  0.64438359  0.20661484     0.43930
H2040       H  0.93113231  0.62124610  0.32191275     0.43890
C2041       C  0.96868289  0.45878850  0.27546585    -0.05170
C2042       C  0.95471399  0.46954676  0.25452114    -0.32600
C2043       C  0.93407160  0.45639728  0.24298933     0.36650
C2044       C  0.92771127  0.43036969  0.25068075    -0.05530
C2045       C  0.94332768  0.41842249  0.27017849    -0.32500
C2046       C  0.96357131  0.43250385  0.28267692     0.36550
H2047       H  0.95840382  0.48949347  0.24797066     0.16920
O2048       O  0.91852811  0.47074233  0.22642671    -0.60000
H2049       H  0.93943423  0.39843145  0.27634564     0.16940
O2050       O  0.97708019  0.42087340  0.30267991    -0.60100
H2051       H  0.99217944  0.41198703  0.29421676     0.43930
H2052       H  0.92939856  0.47424019  0.21072130     0.43890
C2053       C  0.13616985  0.41854082  0.40047945    -0.05170
C2054       C  0.14628925  0.44344320  0.39477335    -0.32600
C2055       C  0.12970759  0.46368747  0.38621705     0.36650
C2056       C  0.10270343  0.45883649  0.38275478    -0.05530
C2057       C  0.09288286  0.43362237  0.38802473    -0.32500
C2058       C  0.10932177  0.41366323  0.39703355     0.36550
H2059       H  0.16697805  0.44725591  0.39724854     0.16920
O2060       O  0.14026312  0.48776571  0.38033778    -0.60000
H2061       H  0.07229418  0.42937622  0.38542318     0.16940
O2062       O  0.09915282  0.38912558  0.40172742    -0.60100
H2063       H  0.09075747  0.39037840  0.41917504     0.43930
H2064       H  0.14269553  0.49666175  0.39742120     0.43890
C2065       C  0.09890521  0.46128998  0.27630269    -0.05170
C2066       C  0.11644348  0.47303198  0.25869752    -0.32600
C2067       C  0.13642097  0.45891805  0.24691580     0.36650
C2068       C  0.13886451  0.43154002  0.25116160    -0.05530
C2069       C  0.12084941  0.41921175  0.26809220    -0.32500
C2070       C  0.10113404  0.43394429  0.28088628     0.36550
H2071       H  0.11575219  0.49396195  0.25465424     0.16920
O2072       O  0.15497693  0.47284693  0.23331590    -0.60000
H2073       H  0.12239298  0.39828186  0.27186365     0.16940
O2074       O  0.08465888  0.42151811  0.29803256    -0.60100
H2075       H  0.09364860  0.42231478  0.31517214     0.43930
H2076       H  0.14602139  0.47955890  0.21746350     0.43890
C2077       C  0.09254757  0.63497546  0.27599081    -0.05170
C2078       C  0.10897121  0.62448049  0.25657402    -0.32600
C2079       C  0.12900940  0.63895924  0.24551421     0.36650
C2080       C  0.13219820  0.66591647  0.25186572    -0.05530
C2081       C  0.11482249  0.67715317  0.27033670    -0.32500
C2082       C  0.09537051  0.66179950  0.28265686     0.36550
H2083       H  0.10769212  0.60397806  0.25082173     0.16920
O2084       O  0.14708918  0.62541471  0.23079420    -0.60000
H2085       H  0.11668931  0.69764853  0.27583077     0.16940
O2086       O  0.08035819  0.67285597  0.30201908    -0.60100
H2087       H  0.06487366  0.68024279  0.29294927     0.43930
H2088       H  0.13777449  0.61983475  0.21472383     0.43890
C2089       C  0.95749804  0.63138383  0.38402089    -0.05170
C2090       C  0.93543940  0.62263826  0.39814824    -0.32600
C2091       C  0.91444271  0.63958852  0.40357176     0.36650
C2092       C  0.91475615  0.66558034  0.39426407    -0.05530
C2093       C  0.93649291  0.67438978  0.38002956    -0.32500
C2094       C  0.95785699  0.65777005  0.37518764     0.36550
H2095       H  0.93433257  0.60254376  0.40512984     0.16920
O2096       O  0.89362009  0.63061127  0.41793554    -0.60000
H2097       H  0.93741338  0.69470396  0.37361147     0.16940
O2098       O  0.97866764  0.66752724  0.36134175    -0.60100
H2099       H  0.99051895  0.67513824  0.37466078     0.43930
H2100       H  0.89963313  0.63075541  0.43634636     0.43890
C2101       C  0.21966822  0.62271364  0.15257024    -0.05170
C2102       C  0.21959297  0.65000335  0.14744982    -0.32600
C2103       C  0.21172649  0.66816636  0.16665841     0.36650
C2104       C  0.20342112  0.65911918  0.19119727    -0.05530
C2105       C  0.20385631  0.63198103  0.19644596    -0.32500
C2106       C  0.21181730  0.61385062  0.17743843     0.36550
H2107       H  0.22591126  0.65729905  0.12858876     0.16920
O2108       O  0.21133117  0.69454424  0.16097651    -0.60000
H2109       H  0.19750738  0.62478005  0.21532936     0.16940
O2110       O  0.21134663  0.58748720  0.18325837    -0.60100
H2111       H  0.19384869  0.58132852  0.17762679     0.43930
H2112       H  0.22858075  0.70124279  0.16675325     0.43890
C2113       C  0.22036623  0.47958077  0.15207754    -0.05170
C2114       C  0.21816480  0.45286980  0.14470198    -0.32600
C2115       C  0.21252613  0.43326557  0.16320375     0.36650
C2116       C  0.20841048  0.44020832  0.18943355    -0.05530
C2117       C  0.21052168  0.46678030  0.19683861    -0.32500
C2118       C  0.21637462  0.48635211  0.17850661     0.36550
H2119       H  0.22140330  0.44702117  0.12458803     0.16920
O2120       O  0.21027107  0.40755947  0.15532331    -0.60000
H2121       H  0.20682879  0.47247085  0.21692665     0.16940
O2122       O  0.21754474  0.51208502  0.18660478    -0.60100
H2123       H  0.19969784  0.51925013  0.18380148     0.43930
H2124       H  0.22791926  0.39980587  0.15782556     0.43890
C2125       C  0.31324804  0.48020045  0.15860710    -0.05170
C2126       C  0.33080769  0.48497326  0.17907292    -0.32600
C2127       C  0.33968028  0.46401074  0.19465222     0.36650
C2128       C  0.33041903  0.43829791  0.19006542    -0.05530
C2129       C  0.31157172  0.43405370  0.17078824    -0.32500
C2130       C  0.30318121  0.45471092  0.15491440     0.36550
H2131       H  0.33884651  0.50449131  0.18186378     0.16920
O2132       O  0.35856407  0.46847922  0.21309501    -0.60000
H2133       H  0.30478658  0.41425902  0.16672354     0.16940
O2134       O  0.28670274  0.44951434  0.13440896    -0.60100
H2135       H  0.27032418  0.44298648  0.14243282     0.43930
H2136       H  0.34886166  0.47116062  0.22968674     0.43890
C2137       C  0.45621137  0.72535412  0.15455058    -0.05170
C2138       C  0.46253970  0.72167376  0.18108840    -0.32600
C2139       C  0.44304001  0.71490781  0.19939393     0.36650
C2140       C  0.41692004  0.71203488  0.19122220    -0.05530
C2141       C  0.41052804  0.71701747  0.16514227    -0.32500
C2142       C  0.42972562  0.72348271  0.14692336     0.36550
H2143       H  0.48263839  0.72341788  0.18749775     0.16920
O2144       O  0.44986622  0.70993664  0.22479995    -0.60000
H2145       H  0.39042974  0.71520609  0.15867389     0.16940
O2146       O  0.42214802  0.72872071  0.12175775    -0.60100
H2147       H  0.41844992  0.71127456  0.11385946     0.43930
H2148       H  0.44783196  0.72704603  0.23395955     0.43890
C2149       C  0.34727705  0.64657940  0.19780616    -0.05170
C2150       C  0.36156842  0.62473168  0.18840087    -0.32600
C2151       C  0.35072119  0.60752110  0.17001272     0.36650
C2152       C  0.32502561  0.61154376  0.16131289    -0.05530
C2153       C  0.30996576  0.63190715  0.17208525    -0.32500
C2154       C  0.32088873  0.64954279  0.19002329     0.36550
H2155       H  0.38173908  0.62185587  0.19421584     0.16920
O2156       O  0.36577504  0.58764386  0.15970901    -0.60000
H2157       H  0.29012963  0.63515218  0.16532091     0.16940
O2158       O  0.30646269  0.67110737  0.19750304    -0.60100
H2159       H  0.29354794  0.66436827  0.21032505     0.43930
H2160       H  0.36169665  0.57192361  0.17043108     0.43890
C2161       C  0.24801223  0.75632530  0.29394126    -0.05170
C2162       C  0.22512117  0.74606832  0.30552043    -0.32600
C2163       C  0.20875048  0.72847637  0.29226490     0.36650
C2164       C  0.21210318  0.72405460  0.26516967    -0.05530
C2165       C  0.23138865  0.73898988  0.25241249    -0.32500
C2166       C  0.24863920  0.75519567  0.26625418     0.36550
H2167       H  0.21961438  0.75094264  0.32519837     0.16920
O2168       O  0.19016920  0.71545210  0.30654085    -0.60000
H2169       H  0.23281868  0.73876419  0.23129901     0.16940
O2170       O  0.26378869  0.77199119  0.25201148    -0.60100
H2171       H  0.25418784  0.78899901  0.25201078     0.43930
H2172       H  0.19906092  0.69941546  0.31316801     0.43890
C2173       C  0.34370072  0.72610516  0.25462150    -0.05170
C2174       C  0.33632099  0.75025705  0.24369210    -0.32600
C2175       C  0.31934892  0.76754627  0.25687672     0.36650
C2176       C  0.30915911  0.76071357  0.28177296    -0.05530
C2177       C  0.31658021  0.73630647  0.29255399    -0.32500
C2178       C  0.33353932  0.71908244  0.27921160     0.36550
H2179       H  0.34323297  0.75550273  0.22435670     0.16920
O2180       O  0.31142999  0.79016308  0.24445328    -0.60000
H2181       H  0.30965729  0.73080200  0.31177224     0.16940
O2182       O  0.34016484  0.69548912  0.29044667    -0.60100
H2183       H  0.35657816  0.69897974  0.30012479     0.43930
H2184       H  0.32744216  0.79856956  0.23737157     0.43890
C2185       C  0.32489886  0.81643487  0.29233403    -0.05170
C2186       C  0.31660068  0.83662117  0.27548306    -0.32600
C2187       C  0.33460176  0.85069919  0.26048136     0.36650
C2188       C  0.36135110  0.84448840  0.26188797    -0.05530
C2189       C  0.36974328  0.82409796  0.27846489    -0.32500
C2190       C  0.35168392  0.81026852  0.29391147     0.36550
H2191       H  0.29599312  0.84149277  0.27410471     0.16920
O2192       O  0.32590031  0.87054637  0.24452112    -0.60000
H2193       H  0.39036496  0.81933679  0.27982498     0.16940
O2194       O  0.36030067  0.79078191  0.31031135    -0.60100
H2195       H  0.36252649  0.79947826  0.32752265     0.43930
H2196       H  0.32281430  0.86205072  0.22734685     0.43890
C2197       C  0.22250341  0.73272491  0.39344757    -0.05170
C2198       C  0.23545668  0.71959388  0.37275259    -0.32600
C2199       C  0.25255094  0.73326330  0.35567796     0.36650
C2200       C  0.25559068  0.76092665  0.35837628    -0.05530
C2201       C  0.25009603  0.77074639  0.38349519    -0.32500
C2202       C  0.23194760  0.75821465  0.39983291     0.36550
H2203       H  0.23171345  0.69893605  0.36914929     0.16920
O2204       O  0.26585514  0.71975181  0.33646162    -0.60000
H2205       H  0.25726473  0.78971308  0.38960861     0.16940
O2206       O  0.22168358  0.77268382  0.42002886    -0.60100
H2207       H  0.23572789  0.77354566  0.43334658     0.43930
H2208       H  0.25347265  0.70698826  0.32863232     0.43890
C2209       C  0.10258379  0.63606473  0.37917719    -0.05170
C2210       C  0.12950803  0.63012632  0.37774369    -0.32600
C2211       C  0.14848086  0.64923795  0.38348218     0.36650
C2212       C  0.14071669  0.67466722  0.39123899    -0.05530
C2213       C  0.11384304  0.68093768  0.39130962    -0.32500
C2214       C  0.09491333  0.66198549  0.38536772     0.36550
H2215       H  0.13590317  0.61048841  0.37235155     0.16920
O2216       O  0.17441686  0.64230564  0.38327510    -0.60000
H2217       H  0.10742019  0.70038382  0.39734785     0.16940
O2218       O  0.06894771  0.66855453  0.38750117    -0.60100
H2219       H  0.06452156  0.67739745  0.37081383     0.43930
H2220       H  0.18032718  0.64533542  0.36506006     0.43890
C2221       C  0.62655851  0.83666366  0.93525107    -0.05170
C2222       C  0.62390459  0.85139597  0.95829565    -0.32600
C2223       C  0.60791048  0.84261377  0.97859974     0.36650
C2224       C  0.59396805  0.81884065  0.97586824    -0.05530
C2225       C  0.59733906  0.80368412  0.95312998    -0.32500
C2226       C  0.61363761  0.81233464  0.93297684     0.36550
H2227       H  0.63354791  0.87028673  0.96014035     0.16920
O2228       O  0.60473081  0.85827367  0.00024964    -0.60000
H2229       H  0.58709965  0.78517969  0.95082590     0.16940
O2230       O  0.61523696  0.79785773  0.91038296    -0.60100
H2231       H  0.62858288  0.78411076  0.91392957     0.43930
H2232       H  0.62008803  0.85447127  0.01145244     0.43890
C2233       C  0.62425390  0.90701326  0.87011518    -0.05170
C2234       C  0.63020933  0.93178742  0.88046983    -0.32600
C2235       C  0.61417004  0.95352437  0.87526032     0.36650
C2236       C  0.59159318  0.95048127  0.85960685    -0.05530
C2237       C  0.58615891  0.92548631  0.84894310    -0.32500
C2238       C  0.60232779  0.90395686  0.85402430     0.36550
H2239       H  0.64686080  0.93406198  0.89333608     0.16920
O2240       O  0.62062957  0.97742604  0.88591163    -0.60000
H2241       H  0.56918107  0.92242354  0.83669904     0.16940
O2242       O  0.59557036  0.87958765  0.84463954    -0.60100
H2243       H  0.60544684  0.87754643  0.82807001     0.43930
H2244       H  0.61191635  0.97781102  0.90323975     0.43890
C2245       C  0.42731198  0.83617140  0.93309565    -0.05170
C2246       C  0.43907278  0.81124374  0.93202921    -0.32600
C2247       C  0.45411430  0.80194738  0.95282180     0.36650
C2248       C  0.45802202  0.81763659  0.97522629    -0.05530
C2249       C  0.44503803  0.84198634  0.97697830    -0.32500
C2250       C  0.42986441  0.85135884  0.95610312     0.36550
H2251       H  0.43724868  0.79913940  0.91467864     0.16920
O2252       O  0.46436400  0.77709482  0.95127594    -0.60000
H2253       H  0.44713367  0.85409721  0.99428836     0.16940
O2254       O  0.41718261  0.87511997  0.95850217    -0.60100
H2255       H  0.43115552  0.88862740  0.95886513     0.43930
H2256       H  0.45090975  0.76588186  0.95961641     0.43890
C2257       C  0.42341440  0.90724902  0.86720778    -0.05170
C2258       C  0.42216638  0.92956999  0.88343402    -0.32600
C2259       C  0.43647812  0.95227516  0.87748659     0.36650
C2260       C  0.45285087  0.95262045  0.85532285    -0.05530
C2261       C  0.45288681  0.93075156  0.83836555    -0.32500
C2262       C  0.43821528  0.90828885  0.84405582     0.36550
H2263       H  0.41088216  0.92895986  0.90136961     0.16920
O2264       O  0.43583681  0.97314283  0.89450935    -0.60000
H2265       H  0.46493974  0.93073032  0.82092102     0.16940
O2266       O  0.44033860  0.88664094  0.82810157    -0.60100
H2267       H  0.42872021  0.89037829  0.81304933     0.43930
H2268       H  0.42049939  0.98381734  0.88910968     0.43890
C2269       C  0.23240853  0.61866231  0.97464426    -0.05170
C2270       C  0.20755189  0.63044000  0.97327479    -0.32600
C2271       C  0.19924008  0.64301231  0.95027198     0.36650
C2272       C  0.21617171  0.64454078  0.92851662    -0.05530
C2273       C  0.24158035  0.63437886  0.93061234    -0.32500
C2274       C  0.24966386  0.62133896  0.95321634     0.36550
H2275       H  0.19412033  0.62889612  0.98959736     0.16920
O2276       O  0.17464631  0.65386819  0.94921501    -0.60000
H2277       H  0.25488328  0.63535707  0.91413027     0.16940
O2278       O  0.27460075  0.61133010  0.95416947    -0.60100
H2279       H  0.27411222  0.59483014  0.94378592     0.43930
H2280       H  0.16244193  0.63873115  0.94866163     0.43890
C2281       C  0.23414377  0.38791272  0.86083459    -0.05170
C2282       C  0.22349286  0.36486831  0.85014581    -0.32600
C2283       C  0.23907674  0.34721897  0.83584344     0.36650
C2284       C  0.26583296  0.35248207  0.83172122    -0.05530
C2285       C  0.27664492  0.37524246  0.84318433    -0.32500
C2286       C  0.26110366  0.39278744  0.85762642     0.36550
H2287       H  0.20288839  0.36063622  0.85270168     0.16920
O2288       O  0.22798799  0.32476435  0.82609529    -0.60000
H2289       H  0.29691795  0.38022866  0.83970496     0.16940
O2290       O  0.27201469  0.41570343  0.86665078    -0.60100
H2291       H  0.28291251  0.41042930  0.88178389     0.43930
H2292       H  0.21752166  0.33057851  0.81084564     0.43890
C2293       C  0.21781467  0.45403765  0.93173259    -0.05170
C2294       C  0.22040137  0.44201100  0.95624045    -0.32600
C2295       C  0.22719382  0.45698386  0.97828135     0.36650
C2296       C  0.23150780  0.48434540  0.97583171    -0.05530
C2297       C  0.22968781  0.49596958  0.95103169    -0.32500
C2298       C  0.22281529  0.48113256  0.92919425     0.36550
H2299       H  0.21670904  0.42111991  0.95835022     0.16920
O2300       O  0.22967515  0.44466990  0.00197651    -0.60000
H2301       H  0.23330316  0.51682947  0.94847603     0.16940
O2302       O  0.22161904  0.49312477  0.90519928    -0.60100
H2303       H  0.20681895  0.50574606  0.90638115     0.43930
H2304       H  0.24776180  0.43757634  0.00217738     0.43890
C2305       C  0.93497685  0.46802572  0.74043106    -0.05170
C2306       C  0.91310503  0.47469089  0.72519599    -0.32600
C2307       C  0.89305725  0.45632429  0.72092869     0.36650
C2308       C  0.89425522  0.43131314  0.73278642    -0.05530
C2309       C  0.91537841  0.42533294  0.74922472    -0.32500
C2310       C  0.93576430  0.44330696  0.75282021     0.36550
H2311       H  0.91201601  0.49382730  0.71590922     0.16920
O2312       O  0.87304276  0.46248645  0.70420133    -0.60000
H2313       H  0.91685831  0.40599339  0.75805571     0.16940
O2314       O  0.95623527  0.43669133  0.76882710    -0.60100
H2315       H  0.96863632  0.42679825  0.75754242     0.43930
H2316       H  0.85889838  0.46955120  0.71551984     0.43890
C2317       C  0.11517607  0.47652275  0.73092205    -0.05170
C2318       C  0.12635356  0.46023380  0.74996657    -0.32600
C2319       C  0.14809119  0.44457137  0.74415376     0.36650
C2320       C  0.15913037  0.44518544  0.71888579    -0.05530
C2321       C  0.14918637  0.46333110  0.70053245    -0.32500
C2322       C  0.12716036  0.47877919  0.70637073     0.36550
H2323       H  0.11765454  0.45907281  0.76927534     0.16920
O2324       O  0.15656230  0.42674605  0.76242028    -0.60000
H2325       H  0.15733590  0.46402893  0.68098522     0.16940
O2326       O  0.11740074  0.49577536  0.68798678    -0.60100
H2327       H  0.10429005  0.48541553  0.67812844     0.43930
H2328       H  0.16853393  0.43676636  0.77393494     0.43890
C2329       C  0.15611190  0.63247049  0.85369112    -0.05170
C2330       C  0.15663896  0.60484934  0.85472186    -0.32600
C2331       C  0.13557012  0.59002427  0.84564568     0.36650
C2332       C  0.11329406  0.60273760  0.83553436    -0.05530
C2333       C  0.11265211  0.63038906  0.83448306    -0.32500
C2334       C  0.13405814  0.64526832  0.84316460     0.36550
H2335       H  0.17348961  0.59472139  0.86275395     0.16920
O2336       O  0.13683220  0.56307439  0.84699772    -0.60000
H2337       H  0.09575096  0.64042549  0.82645623     0.16940
O2338       O  0.13285174  0.67223590  0.84222349    -0.60100
H2339       H  0.13792857  0.67690631  0.82410306     0.43930
H2340       H  0.12868177  0.55845476  0.86397814     0.43890
C2341       C  0.15748579  0.44974967  0.85714507    -0.05170
C2342       C  0.13533896  0.43539890  0.84953825    -0.32600
C2343       C  0.11383892  0.44823608  0.83809757     0.36650
C2344       C  0.11448224  0.47572650  0.83406079    -0.05530
C2345       C  0.13716847  0.48965879  0.84054153    -0.32500
C2346       C  0.15839004  0.47701561  0.85220013     0.36550
H2347       H  0.13447109  0.41438579  0.85307535     0.16920
O2348       O  0.09246422  0.43374946  0.83081672    -0.60000
H2349       H  0.13829679  0.51066277  0.83710244     0.16940
O2350       O  0.18021263  0.49139474  0.85838506    -0.60100
H2351       H  0.17453898  0.50379204  0.87229611     0.43930
H2352       H  0.09532842  0.42954267  0.81209406     0.43890
C2353       C  0.15178214  0.64542050  0.72254155    -0.05170
C2354       C  0.12698933  0.65407363  0.73050449    -0.32600
C2355       C  0.10715894  0.63619485  0.73600159     0.36650
C2356       C  0.11215677  0.60894515  0.73450909    -0.05530
C2357       C  0.13750527  0.60016856  0.72792385    -0.32500
C2358       C  0.15722723  0.61830674  0.72157705     0.36550
H2359       H  0.12267072  0.67497216  0.73140778     0.16920
O2360       O  0.08313807  0.64561464  0.74359436    -0.60000
H2361       H  0.14180107  0.57927443  0.72708006     0.16940
O2362       O  0.18126177  0.60940229  0.71351135    -0.60100
H2363       H  0.19220332  0.60927162  0.72948763     0.43930
H2364       H  0.07479753  0.65209777  0.72733331     0.43890
C2365       C  0.23291289  0.69392888  0.84576844    -0.05170
C2366       C  0.23795880  0.71946357  0.85485588    -0.32600
C2367       C  0.25504733  0.73612196  0.84137227     0.36650
C2368       C  0.26775754  0.72728069  0.81852721    -0.05530
C2369       C  0.26272877  0.70172833  0.80930978    -0.32500
C2370       C  0.24527512  0.68514361  0.82266351     0.36550
H2371       H  0.22838163  0.72661776  0.87240280     0.16920
O2372       O  0.25825289  0.76155999  0.84986969    -0.60000
H2373       H  0.27206323  0.69480306  0.79155802     0.16940
O2374       O  0.24114938  0.66009083  0.81355036    -0.60100
H2375       H  0.22855297  0.66209344  0.79896869     0.43930
H2376       H  0.26804066  0.76019153  0.86651614     0.43890
C2377       C  0.25416722  0.74402526  0.76448399    -0.05170
C2378       C  0.22842024  0.74176334  0.77386918    -0.32600
C2379       C  0.20935448  0.72852036  0.75918576     0.36650
C2380       C  0.21568550  0.71824961  0.73437598    -0.05530
C2381       C  0.24118971  0.72095356  0.72481279    -0.32500
C2382       C  0.26041875  0.73353912  0.73971576     0.36550
H2383       H  0.22319814  0.75001922  0.79269804     0.16920
O2384       O  0.18448452  0.72613211  0.76896262    -0.60000
H2385       H  0.24635206  0.71277684  0.70591586     0.16940
O2386       O  0.28564119  0.73452465  0.73051497    -0.60100
H2387       H  0.28484939  0.74491320  0.71414411     0.43930
H2388       H  0.18515221  0.71065380  0.78075211     0.43890
C2389       C  0.33841838  0.79438573  0.82088118    -0.05170
C2390       C  0.32988524  0.81876593  0.83078395    -0.32600
C2391       C  0.34604624  0.83408454  0.84662199     0.36650
C2392       C  0.37118411  0.82502484  0.85321745    -0.05530
C2393       C  0.37978430  0.80053698  0.84359687    -0.32500
C2394       C  0.36378299  0.78541681  0.82705719     0.36550
H2395       H  0.31037447  0.82585191  0.82635401     0.16920
O2396       O  0.33695274  0.85777952  0.85586780    -0.60000
H2397       H  0.39912666  0.79336003  0.84854736     0.16940
O2398       O  0.37265377  0.76165911  0.81768781    -0.60100
H2399       H  0.38896150  0.76553078  0.80792486     0.43930
H2400       H  0.32901762  0.85375452  0.87309729     0.43890
C2401       C  0.35782482  0.95635544  0.63766450    -0.05170
C2402       C  0.36678440  0.93173024  0.62853721    -0.32600
C2403       C  0.37291619  0.91148241  0.64616103     0.36650
C2404       C  0.36937036  0.91560784  0.67306642    -0.05530
C2405       C  0.35932641  0.93969633  0.68200732    -0.32500
C2406       C  0.35387054  0.96007098  0.66464996     0.36550
H2407       H  0.36966322  0.92845255  0.60780685     0.16920
O2408       O  0.38347720  0.88835597  0.63707870    -0.60000
H2409       H  0.35686414  0.94311790  0.70278880     0.16940
O2410       O  0.34401936  0.98332757  0.67424061    -0.60100
H2411       H  0.35944637  0.99322391  0.68060926     0.43930
H2412       H  0.36841287  0.87627762  0.63504210     0.43890
C2413       C  0.42686435  0.91680338  0.74468209    -0.05170
C2414       C  0.41638000  0.94166077  0.75065602    -0.32600
C2415       C  0.43233085  0.96211648  0.75931250     0.36650
C2416       C  0.45933764  0.95780729  0.76270053    -0.05530
C2417       C  0.46966532  0.93246278  0.75769903    -0.32500
C2418       C  0.45362200  0.91208912  0.74852244     0.36550
H2419       H  0.39576869  0.94554095  0.74743785     0.16920
O2420       O  0.42115120  0.98606699  0.76490323    -0.60000
H2421       H  0.49033976  0.92858692  0.76034668     0.16940
O2422       O  0.46445474  0.88819415  0.74211890    -0.60100
H2423       H  0.46243172  0.87721425  0.75800084     0.43930
H2424       H  0.41973519  0.99521382  0.74784781     0.43890
C2425       C  0.35695720  0.84864832  0.74275700    -0.05170
C2426       C  0.36530204  0.82240965  0.74408884    -0.32600
C2427       C  0.34987238  0.80337808  0.75651911     0.36650
C2428       C  0.32583270  0.81058701  0.76806605    -0.05530
C2429       C  0.31751449  0.83692844  0.76683561    -0.32500
C2430       C  0.33277546  0.85585029  0.75396417     0.36550
H2431       H  0.38365886  0.81659902  0.73512720     0.16920
O2432       O  0.35764387  0.77746107  0.75620668    -0.60000
H2433       H  0.29913976  0.84274185  0.77573573     0.16940
O2434       O  0.32421654  0.88144631  0.75287968    -0.60100
H2435       H  0.31268396  0.88226112  0.73733978     0.43930
H2436       H  0.37480366  0.77696856  0.76515957     0.43890
C2437       C  0.42239664  0.69975718  0.94102836    -0.05170
C2438       C  0.41691461  0.69806240  0.96784670    -0.32600
C2439       C  0.43529276  0.70499673  0.98656592     0.36650
C2440       C  0.46003105  0.71461203  0.97889029    -0.05530
C2441       C  0.46574537  0.71611332  0.95187908    -0.32500
C2442       C  0.44703063  0.70894646  0.93300784     0.36550
H2443       H  0.39801004  0.69108573  0.97448127     0.16920
O2444       O  0.42855629  0.70229499  0.01237588    -0.60000
H2445       H  0.48451016  0.72345696  0.94533235     0.16940
O2446       O  0.45300649  0.71097339  0.90696778    -0.60100
H2447       H  0.46039535  0.69357379  0.90205893     0.43930
H2448       H  0.41805442  0.71819691  0.01663004     0.43890
C2449       C  0.35135176  0.64145876  0.93844842    -0.05170
C2450       C  0.33543919  0.65372580  0.95726656    -0.32600
C2451       C  0.32629248  0.63970838  0.97883667     0.36650
C2452       C  0.33270330  0.61293768  0.98156932    -0.05530
C2453       C  0.34761368  0.60030392  0.96213953    -0.32500
C2454       C  0.35748975  0.61458920  0.94094904     0.36550
H2455       H  0.33127214  0.67463013  0.95593048     0.16920
O2456       O  0.31109414  0.65231174  0.99712968    -0.60000
H2457       H  0.35214171  0.57950558  0.96379066     0.16940
O2458       O  0.37343941  0.60236514  0.92305071    -0.60100
H2459       H  0.39112576  0.60252178  0.93097346     0.43930
H2460       H  0.29282824  0.64998539  0.99108451     0.43890
C2461       C  0.35165286  0.71324955  0.87335708    -0.05170
C2462       C  0.34736731  0.70247489  0.84851043    -0.32600
C2463       C  0.33238123  0.71594209  0.82992455     0.36650
C2464       C  0.32107979  0.74052264  0.83611346    -0.05530
C2465       C  0.32486728  0.75107359  0.86124550    -0.32500
C2466       C  0.34031897  0.73775466  0.87969674     0.36550
H2467       H  0.35585172  0.68355114  0.84344889     0.16920
O2468       O  0.33005492  0.70567397  0.80521929    -0.60000
H2469       H  0.31638303  0.76997551  0.86632063     0.16940
O2470       O  0.34359421  0.74842178  0.90408910    -0.60100
H2471       H  0.35828728  0.76099381  0.90222711     0.43930
H2472       H  0.31899576  0.68978673  0.80715552     0.43890
C2473       C  0.11425774  0.74216640  0.62827675    -0.05170
C2474       C  0.10503238  0.72532090  0.64793788    -0.32600
C2475       C  0.12201671  0.71256807  0.66489654     0.36650
C2476       C  0.14932490  0.71586628  0.66239218    -0.05530
C2477       C  0.15888092  0.73283351  0.64293480    -0.32500
C2478       C  0.14159049  0.74592007  0.62588017     0.36550
H2479       H  0.08426928  0.72230281  0.65088461     0.16920
O2480       O  0.11149830  0.69824767  0.68507400    -0.60000
H2481       H  0.17974561  0.73588358  0.64091149     0.16940
O2482       O  0.15164575  0.76268417  0.60747130    -0.60100
H2483       H  0.15490712  0.75154941  0.59186167     0.43930
H2484       H  0.10330997  0.68260910  0.67684606     0.43890
C2485       C  0.11865907  0.75128024  0.50257524    -0.05170
C2486       C  0.13065463  0.76813163  0.48450753    -0.32600
C2487       C  0.14899614  0.75835017  0.46656355     0.36650
C2488       C  0.15571861  0.73139826  0.46679659    -0.05530
C2489       C  0.14515433  0.71507875  0.48633622    -0.32500
C2490       C  0.12653817  0.72482975  0.50400515     0.36550
H2491       H  0.12471156  0.78861958  0.48337903     0.16920
O2492       O  0.15797788  0.77458486  0.44713188    -0.60000
H2493       H  0.14999584  0.69428701  0.48667465     0.16940
O2494       O  0.11574585  0.70828623  0.52220844    -0.60100
H2495       H  0.10037776  0.70033945  0.51346413     0.43930
H2496       H  0.17302809  0.78404176  0.45488322     0.43890
C2497       C  0.94225584  0.75222496  0.49786655    -0.05170
C2498       C  0.91628011  0.76113973  0.49543943    -0.32600
C2499       C  0.89956450  0.75024305  0.47641063     0.36650
C2500       C  0.90895101  0.73026060  0.45951332    -0.05530
C2501       C  0.93481938  0.72152521  0.46237493    -0.32500
C2502       C  0.95102673  0.73159388  0.48145805     0.36550
H2503       H  0.90906786  0.77683884  0.50789861     0.16920
O2504       O  0.87411927  0.75877341  0.47490776    -0.60000
H2505       H  0.94317146  0.70697051  0.44928426     0.16940
O2506       O  0.97548693  0.72061932  0.48400636    -0.60100
H2507       H  0.98581964  0.72748263  0.46907619     0.43930
H2508       H  0.87505002  0.77715375  0.46841553     0.43890
C2509       C  0.24033650  0.83204327  0.72171126    -0.05170
C2510       C  0.26393485  0.82164159  0.71192389    -0.32600
C2511       C  0.27917181  0.80431741  0.72698238     0.36650
C2512       C  0.27088642  0.79746070  0.75232287    -0.05530
C2513       C  0.24704714  0.80755662  0.76179834    -0.32500
C2514       C  0.23168782  0.82442568  0.74663147     0.36550
H2515       H  0.27058180  0.82702750  0.69254371     0.16920
O2516       O  0.30172556  0.79380647  0.71669720    -0.60000
H2517       H  0.24048222  0.80257486  0.78132091     0.16940
O2518       O  0.20894045  0.83449212  0.75687378    -0.60100
H2519       H  0.19577391  0.82037480  0.75459405     0.43930
H2520       H  0.31311180  0.80900992  0.71247916     0.43890
C2521       C  0.16261451  0.85673912  0.66806201    -0.05170
C2522       C  0.16655900  0.84919469  0.64210188    -0.32600
C2523       C  0.14554612  0.84520424  0.62538914     0.36650
C2524       C  0.11958272  0.84849497  0.63458802    -0.05530
C2525       C  0.11562926  0.85608470  0.66081545    -0.32500
C2526       C  0.13702356  0.86027566  0.67752472     0.36550
H2527       H  0.18627267  0.84715873  0.63447478     0.16920
O2528       O  0.15080872  0.83901180  0.59978766    -0.60000
H2529       H  0.09599463  0.85853076  0.66845133     0.16940
O2530       O  0.13277995  0.86859084  0.70267361    -0.60100
H2531       H  0.13251179  0.85227539  0.71329911     0.43930
H2532       H  0.15534126  0.81999624  0.59980554     0.43890
C2533       C  0.23859286  0.91286865  0.66652887    -0.05170
C2534       C  0.23761398  0.91243929  0.63912482    -0.32600
C2535       C  0.24868871  0.93263498  0.62447033     0.36650
C2536       C  0.26107298  0.95373149  0.63717648    -0.05530
C2537       C  0.26245778  0.95406114  0.66461032    -0.32500
C2538       C  0.25157200  0.93354052  0.67932222     0.36550
H2539       H  0.22777510  0.89651572  0.62904485     0.16920
O2540       O  0.24654368  0.93200488  0.59775465    -0.60000
H2541       H  0.27198062  0.97022849  0.67459205     0.16940
O2542       O  0.25257458  0.93448163  0.70607988    -0.60100
H2543       H  0.26997212  0.92718474  0.71071345     0.43930
H2544       H  0.23036862  0.94204293  0.59374564     0.43890
C2545       C  0.22487844  0.85624966  0.39332452    -0.05170
C2546       C  0.21387265  0.83252399  0.38403782    -0.32600
C2547       C  0.22575748  0.81834466  0.36340389     0.36650
C2548       C  0.25112790  0.82551121  0.35489572    -0.05530
C2549       C  0.25738438  0.85219181  0.35880340    -0.32500
C2550       C  0.24486494  0.86743839  0.37787831     0.36550
H2551       H  0.19638344  0.82443731  0.39263550     0.16920
O2552       O  0.21251158  0.79820917  0.35119938    -0.60000
H2553       H  0.27119894  0.86207023  0.34658934     0.16940
O2554       O  0.25109327  0.89367577  0.37991799    -0.60100
H2555       H  0.27015698  0.89435065  0.38352124     0.43930
H2556       H  0.20204564  0.78888769  0.36462550     0.43890
C2557       C  0.16159133  0.86475433  0.46945405    -0.05170
C2558       C  0.13636616  0.86511080  0.45882335    -0.32600
C2559       C  0.11461750  0.85916220  0.47446687     0.36650
C2560       C  0.11810221  0.85273357  0.50111589    -0.05530
C2561       C  0.14352925  0.85165557  0.51129524    -0.32500
C2562       C  0.16508599  0.85742039  0.49576592     0.36550
H2563       H  0.13348639  0.87052596  0.43856193     0.16920
O2564       O  0.09028434  0.85872423  0.46326162    -0.60000
H2565       H  0.14689181  0.84620781  0.53148083     0.16940
O2566       O  0.18970410  0.85515112  0.50626351    -0.60100
H2567       H  0.19123470  0.86977386  0.51904552     0.43930
H2568       H  0.08426042  0.87730882  0.46335614     0.43890
C2569       C  0.24085473  0.91761442  0.46937448    -0.05170
C2570       C  0.25124057  0.91018776  0.49357815    -0.32600
C2571       C  0.26121215  0.92908764  0.51072365     0.36650
C2572       C  0.26042271  0.95605640  0.50385863    -0.05530
C2573       C  0.25092967  0.96316502  0.47903298    -0.32500
C2574       C  0.24125802  0.94415488  0.46186534     0.36550
H2575       H  0.25038817  0.88978316  0.49972146     0.16920
O2576       O  0.27002539  0.92106377  0.53473604    -0.60000
H2577       H  0.25042889  0.98361648  0.47304409     0.16940
O2578       O  0.23034636  0.95192874  0.43865671    -0.60100
H2579       H  0.24441863  0.94965421  0.42547729     0.43930
H2580       H  0.28841638  0.91550408  0.53182078     0.43890
C2581       C  0.93556963  0.60399114  0.83647829    -0.05170
C2582       C  0.94170928  0.62069105  0.85756037    -0.32600
C2583       C  0.92283293  0.63739340  0.86842608     0.36650
C2584       C  0.89749269  0.63805029  0.85790161    -0.05530
C2585       C  0.89130452  0.62175854  0.83670440    -0.32500
C2586       C  0.90995175  0.60457479  0.82616851     0.36550
H2587       H  0.96118943  0.62075650  0.86585066     0.16920
O2588       O  0.92944639  0.65349814  0.88891565    -0.60000
H2589       H  0.87169859  0.62189454  0.82869079     0.16940
O2590       O  0.90313396  0.58927994  0.80516377    -0.60100
H2591       H  0.89476985  0.57344001  0.81277356     0.43930
H2592       H  0.92992201  0.64188467  0.90447626     0.43890
C2593       C  0.83740050  0.64720635  0.93178922    -0.05170
C2594       C  0.81593084  0.63033959  0.93004235    -0.32600
C2595       C  0.80966077  0.61346489  0.95058109     0.36650
C2596       C  0.82447451  0.61391380  0.97391101    -0.05530
C2597       C  0.84512012  0.63202944  0.97614429    -0.32500
C2598       C  0.85183118  0.64835410  0.95513166     0.36550
H2599       H  0.80494666  0.62903289  0.91199214     0.16920
O2600       O  0.78903380  0.59654008  0.94747748    -0.60000
H2601       H  0.85671998  0.63284973  0.99381459     0.16940
O2602       O  0.87319435  0.66448844  0.95712971    -0.60100
H2603       H  0.86608084  0.68182085  0.96265102     0.43930
H2604       H  0.79611249  0.58148681  0.93727656     0.43890
C2605       C  0.81932732  0.37788826  0.86160606    -0.05170
C2606       C  0.80791239  0.38329604  0.83726878    -0.32600
C2607       C  0.79193395  0.36471285  0.82489744     0.36650
C2608       C  0.78777430  0.33989387  0.83661139    -0.05530
C2609       C  0.79822149  0.33503128  0.86150688    -0.32500
C2610       C  0.81377712  0.35384882  0.87406986     0.36550
H2611       H  0.81181264  0.40183766  0.82757385     0.16920
O2612       O  0.78183909  0.37015910  0.80063598    -0.60000
H2613       H  0.79520752  0.31608200  0.87074030     0.16940
O2614       O  0.82505346  0.34779226  0.89760903    -0.60100
H2615       H  0.81126996  0.35123152  0.91085089     0.43930
H2616       H  0.77019864  0.38564689  0.80301772     0.43890
C2617       C  0.89680877  0.43686537  0.85202190    -0.05170
C2618       C  0.88983486  0.45873650  0.83693769    -0.32600
C2619       C  0.90898593  0.47487166  0.82587519     0.36650
C2620       C  0.93581773  0.46934519  0.83007406    -0.05530
C2621       C  0.94258203  0.44647549  0.84418382    -0.32500
C2622       C  0.92330062  0.43037764  0.85514452     0.36550
H2623       H  0.86940253  0.46406213  0.83480078     0.16920
O2624       O  0.90108268  0.49665159  0.81213914    -0.60000
H2625       H  0.96289708  0.44135441  0.84742762     0.16940
O2626       O  0.93054284  0.40916094  0.87005325    -0.60100
H2627       H  0.93013611  0.39388313  0.85796843     0.43930
H2628       H  0.89899446  0.49046444  0.79387333     0.43890
C2629       C  0.84337942  0.44327091  0.93109555    -0.05170
C2630       C  0.84303277  0.47079547  0.92852093    -0.32600
C2631       C  0.83716731  0.48701353  0.94970049     0.36650
C2632       C  0.83116568  0.47588485  0.97416767    -0.05530
C2633       C  0.83178631  0.44831283  0.97697434    -0.32500
C2634       C  0.83761363  0.43197935  0.95553320     0.36550
H2635       H  0.84725243  0.47985190  0.90982086     0.16920
O2636       O  0.83737591  0.51380309  0.94620367    -0.60000
H2637       H  0.82714175  0.43939662  0.99563051     0.16940
O2638       O  0.83842112  0.40518330  0.95881464    -0.60100
H2639       H  0.81988762  0.39947602  0.95873616     0.43930
H2640       H  0.85521065  0.51945528  0.95127753     0.43890
C2641       C  0.82641659  0.97722797  0.65707052    -0.05170
C2642       C  0.81395081  0.97112151  0.68084899    -0.32600
C2643       C  0.82245348  0.94953676  0.69619436     0.36650
C2644       C  0.84329202  0.93323787  0.68735906    -0.05530
C2645       C  0.85620459  0.94068526  0.66417711    -0.32500
C2646       C  0.84878611  0.96263639  0.64990056     0.36550
H2647       H  0.79707443  0.98244694  0.68712815     0.16920
O2648       O  0.81058394  0.94495395  0.71980695    -0.60000
H2649       H  0.87170280  0.92892509  0.65573599     0.16940
O2650       O  0.86357762  0.96940744  0.62849473    -0.60100
H2651       H  0.85985566  0.95582761  0.61505704     0.43930
H2652       H  0.79232850  0.93991084  0.71563278     0.43890
C2653       C  0.90311016  0.86008008  0.67966688    -0.05170
C2654       C  0.92907594  0.86780634  0.68344758    -0.32600
C2655       C  0.94844200  0.86157880  0.66497976     0.36650
C2656       C  0.94188609  0.84783476  0.64172243    -0.05530
C2657       C  0.91576230  0.83995207  0.63825679    -0.32500
C2658       C  0.89656488  0.84591871  0.65693885     0.36550
H2659       H  0.93424550  0.87927792  0.70053421     0.16920
O2660       O  0.97350073  0.86989166  0.66960187    -0.60000
H2661       H  0.90999683  0.82932826  0.62084117     0.16940
O2662       O  0.87103485  0.83945755  0.65191065    -0.60100
H2663       H  0.86898834  0.82124062  0.65854931     0.43930
H2664       H  0.98104145  0.85663767  0.68167957     0.43890
C2665       C  0.83597447  0.86176567  0.38516237    -0.05170
C2666       C  0.84869079  0.85240677  0.36265288    -0.32600
C2667       C  0.83528325  0.83712687  0.34404016     0.36650
C2668       C  0.80873235  0.83063306  0.34786220    -0.05530
C2669       C  0.79605161  0.84027563  0.37049384    -0.32500
C2670       C  0.80933117  0.85585391  0.38878277     0.36550
H2671       H  0.86916088  0.85689892  0.35952515     0.16920
O2672       O  0.84818863  0.82884576  0.32201810    -0.60000
H2673       H  0.77598739  0.83485085  0.37450361     0.16940
O2674       O  0.79649459  0.86389244  0.41096519    -0.60100
H2675       H  0.78676821  0.87997073  0.40578807     0.43930
H2676       H  0.86244249  0.81721316  0.32835262     0.43890
C2677       C  0.84564904  0.94014114  0.44562592    -0.05170
C2678       C  0.86402774  0.95851026  0.45511628    -0.32600
C2679       C  0.85670038  0.97799347  0.47311108     0.36650
C2680       C  0.83052949  0.98008766  0.48096541    -0.05530
C2681       C  0.81175016  0.96349367  0.46976427    -0.32500
C2682       C  0.81906223  0.94357399  0.45224794     0.36550
H2683       H  0.88450892  0.95657536  0.44995261     0.16920
O2684       O  0.87528064  0.99446398  0.48332319    -0.60000
H2685       H  0.79151608  0.96494429  0.47588206     0.16940
O2686       O  0.80050367  0.92598223  0.44403136    -0.60100
H2687       H  0.79105419  0.93503974  0.42970088     0.43930
H2688       H  0.88221748  0.98512458  0.49885643     0.43890
C2689       C  0.90310971  0.86371462  0.45691397    -0.05170
C2690       C  0.89613607  0.85941434  0.48306948    -0.32600
C2691       C  0.91494099  0.85282784  0.50173826     0.36650
C2692       C  0.94148272  0.85010456  0.49441034    -0.05530
C2693       C  0.94827009  0.85358301  0.46790275    -0.32500
C2694       C  0.92929039  0.86030586  0.44924205     0.36550
H2695       H  0.87607416  0.86247348  0.48929838     0.16920
O2696       O  0.90714537  0.85000519  0.52723877    -0.60000
H2697       H  0.96840168  0.85137282  0.46161536     0.16940
O2698       O  0.93678011  0.86511713  0.42396161    -0.60100
H2699       H  0.93426514  0.84817262  0.41465629     0.43930
H2700       H  0.90864251  0.86783795  0.53502416     0.43890
C2701       C  0.36423779  0.92783553  0.45118060    -0.05170
C2702       C  0.36973749  0.95486770  0.45063896    -0.32600
C2703       C  0.36482264  0.97112183  0.47181631     0.36650
C2704       C  0.35231197  0.96118937  0.49437985    -0.05530
C2705       C  0.34584074  0.93414477  0.49493188    -0.32500
C2706       C  0.35182514  0.91744659  0.47354643     0.36550
H2707       H  0.37826067  0.96387658  0.43344284     0.16920
O2708       O  0.37294339  0.99679285  0.47010059    -0.60000
H2709       H  0.33608806  0.92592672  0.51184732     0.16940
O2710       O  0.34622805  0.89110301  0.47506455    -0.60100
H2711       H  0.32705845  0.88986372  0.47241308     0.43930
H2712       H  0.36097101  0.00524466  0.45736507     0.43890
C2713       C  0.41810779  0.93269594  0.37494670    -0.05170
C2714       C  0.40802959  0.94990561  0.35593547    -0.32600
C2715       C  0.42300276  0.97092895  0.34637173     0.36650
C2716       C  0.44872226  0.97479975  0.35553601    -0.05530
C2717       C  0.45888602  0.95700955  0.37408835    -0.32500
C2718       C  0.44389203  0.93621726  0.38369986     0.36550
H2719       H  0.38802050  0.94776597  0.34933887     0.16920
O2720       O  0.41242276  0.98717910  0.32778097    -0.60000
H2721       H  0.47859304  0.95927887  0.38147721     0.16940
O2722       O  0.45434546  0.91991212  0.40233443    -0.60100
H2723       H  0.46154268  0.90467643  0.39250579     0.43930
H2724       H  0.40250243  0.00071742  0.33770569     0.43890
C2725       C  0.34336657  0.86938040  0.37385361    -0.05170
C2726       C  0.33617346  0.84493255  0.38441776    -0.32600
C2727       C  0.32024708  0.82745976  0.37031894     0.36650
C2728       C  0.31113244  0.83426136  0.34521360    -0.05530
C2729       C  0.31824732  0.85887726  0.33484737    -0.32500
C2730       C  0.33409981  0.87630497  0.34885617     0.36550
H2731       H  0.34331877  0.83915083  0.40348896     0.16920
O2732       O  0.31435498  0.80337628  0.38086874    -0.60000
H2733       H  0.31028611  0.86538452  0.31643123     0.16940
O2734       O  0.33924154  0.90070629  0.33855788    -0.60100
H2735       H  0.35086138  0.89747104  0.32332884     0.43930
H2736       H  0.30131404  0.80707797  0.39476966     0.43890
C2737       C  0.90544303  0.34868909  0.46162649    -0.05170
C2738       C  0.90989179  0.36520746  0.48329423    -0.32600
C2739       C  0.92369995  0.35600452  0.50506232     0.36650
C2740       C  0.93232164  0.32974809  0.50578850    -0.05530
C2741       C  0.92567633  0.31259575  0.48545367    -0.32500
C2742       C  0.91232881  0.32179890  0.46344374     0.36550
H2743       H  0.90451916  0.38585104  0.48243855     0.16920
O2744       O  0.93009808  0.37316107  0.52475325    -0.60000
H2745       H  0.93307383  0.29260339  0.48546153     0.16940
O2746       O  0.90937643  0.30518666  0.44251188    -0.60100
H2747       H  0.89359322  0.29463983  0.44651866     0.43930
H2748       H  0.94664838  0.38155640  0.51906607     0.43890
C2749       C  0.92848572  0.41393002  0.39371764    -0.05170
C2750       C  0.92774127  0.43782325  0.40753396    -0.32600
C2751       C  0.94497025  0.45832483  0.40137237     0.36650
C2752       C  0.96384126  0.45488465  0.38144700    -0.05530
C2753       C  0.96473637  0.43067543  0.36801769    -0.32500
C2754       C  0.94707494  0.41049296  0.37374341     0.36550
H2755       H  0.91377156  0.44053944  0.42327044     0.16920
O2756       O  0.94380773  0.48118277  0.41564800    -0.60000
H2757       H  0.97912933  0.42733586  0.35284644     0.16940
O2758       O  0.94903513  0.38696506  0.36065632    -0.60100
H2759       H  0.94017135  0.38991922  0.34368591     0.43930
H2760       H  0.92916703  0.49142430  0.40798603     0.43890
C2761       C  0.86270127  0.34365175  0.37366102    -0.05170
C2762       C  0.83566705  0.34345512  0.37802977    -0.32600
C2763       C  0.81890613  0.33005474  0.36094944     0.36650
C2764       C  0.82931610  0.31638061  0.33930341    -0.05530
C2765       C  0.85636395  0.31659119  0.33482643    -0.32500
C2766       C  0.87304239  0.33037889  0.35172361     0.36550
H2767       H  0.82751631  0.35410097  0.39452529     0.16920
O2768       O  0.79222496  0.33186261  0.36418398    -0.60000
H2769       H  0.86447856  0.30609600  0.31823006     0.16940
O2770       O  0.89948969  0.33001804  0.34722140    -0.60100
H2771       H  0.90259748  0.34415327  0.33423529     0.43930
H2772       H  0.78861354  0.32946340  0.38307716     0.43890
C2773       C  0.40292095  0.36856903  0.96569919    -0.05170
C2774       C  0.42845555  0.37804217  0.96477984    -0.32600
C2775       C  0.44668518  0.37025481  0.98344336     0.36650
C2776       C  0.43940653  0.35253067  0.00360721    -0.05530
C2777       C  0.41360162  0.34307916  0.00432223    -0.32500
C2778       C  0.39543256  0.35097076  0.98548594     0.36550
H2779       H  0.43411351  0.39202027  0.94982163     0.16920
O2780       O  0.47147907  0.38036084  0.98174196    -0.60000
H2781       H  0.40747789  0.32945055  0.01939038     0.16940
O2782       O  0.37009341  0.34235812  0.98721741    -0.60100
H2783       H  0.36955830  0.32601779  0.97659968     0.43930
H2784       H  0.47110448  0.39667001  0.99242415     0.43890
C2785       C  0.33771018  0.43677812  0.95219521    -0.05170
C2786       C  0.32234084  0.43087824  0.97399743    -0.32600
C2787       C  0.31394921  0.45076281  0.99071383     0.36650
C2788       C  0.32032323  0.47714688  0.98530454    -0.05530
C2789       C  0.33394861  0.48334685  0.96225612    -0.32500
C2790       C  0.34298633  0.46315110  0.94579706     0.36550
H2791       H  0.31830954  0.41054618  0.97902060     0.16920
O2792       O  0.29970018  0.44421330  0.01249946    -0.60000
H2793       H  0.33876822  0.50362108  0.95781289     0.16940
O2794       O  0.35828786  0.46919535  0.92462256    -0.60100
H2795       H  0.34605234  0.46995661  0.90963164     0.43930
H2796       H  0.31259923  0.43704280  0.02509814     0.43890
C2797       C  0.33990484  0.35982136  0.89256201    -0.05170
C2798       C  0.31655727  0.34615860  0.89719523    -0.32600
C2799       C  0.30446878  0.33217506  0.87696459     0.36650
C2800       C  0.31573005  0.33229920  0.85187566    -0.05530
C2801       C  0.33955707  0.34525239  0.84763692    -0.32500
C2802       C  0.35176582  0.35880192  0.86786507     0.36550
H2803       H  0.30761438  0.34660696  0.91640282     0.16920
O2804       O  0.28170784  0.31871780  0.88165181    -0.60000
H2805       H  0.34830343  0.34541653  0.82833355     0.16940
O2806       O  0.37467989  0.37193973  0.86308889    -0.60100
H2807       H  0.38872877  0.35891809  0.86662682     0.43930
H2808       H  0.26830941  0.33237748  0.88543299     0.43890
C2809       C  0.79159360  0.81068261  0.76156641    -0.05170
C2810       C  0.81417778  0.82137095  0.77295384    -0.32600
C2811       C  0.82987669  0.83920129  0.75927129     0.36650
C2812       C  0.82301621  0.84698391  0.73381689    -0.05530
C2813       C  0.80046438  0.83642728  0.72230339    -0.32500
C2814       C  0.78500166  0.81807460  0.73584870     0.36550
H2815       H  0.81960802  0.81587759  0.79267248     0.16920
O2816       O  0.85207657  0.84877798  0.77085742    -0.60000
H2817       H  0.79527353  0.84186484  0.70251644     0.16940
O2818       O  0.76382240  0.80722177  0.72362351    -0.60100
H2819       H  0.77076867  0.79159585  0.71423753     0.43930
H2820       H  0.84658554  0.86540315  0.77948911     0.43890
C2821       C  0.79215294  0.73629918  0.82255821    -0.05170
C2822       C  0.81006240  0.74594516  0.84095158    -0.32600
C2823       C  0.82536988  0.72869533  0.85568586     0.36650
C2824       C  0.82318694  0.70142111  0.85180284    -0.05530
C2825       C  0.80587659  0.69171209  0.83284072    -0.32500
C2826       C  0.79031136  0.70905701  0.81821856     0.36550
H2827       H  0.81172465  0.76697096  0.84422363     0.16920
O2828       O  0.84220506  0.73861089  0.87403749    -0.60000
H2829       H  0.80429642  0.67068744  0.82959149     0.16940
O2830       O  0.77316473  0.69930258  0.80010373    -0.60100
H2831       H  0.78387359  0.69599709  0.78425115     0.43930
H2832       H  0.85905118  0.74097337  0.86470551     0.43890
C2833       C  0.72086976  0.80194910  0.82707090    -0.05170
C2834       C  0.69526418  0.80600460  0.81811898    -0.32600
C2835       C  0.67741681  0.82064658  0.83294884     0.36650
C2836       C  0.68495190  0.83092745  0.85731304    -0.05530
C2837       C  0.71029867  0.82640746  0.86657891    -0.32500
C2838       C  0.72832777  0.81220362  0.85153336     0.36550
H2839       H  0.68907194  0.79789037  0.79962046     0.16920
O2840       O  0.65265360  0.82479476  0.82352475    -0.60000
H2841       H  0.71624869  0.83434711  0.88530465     0.16940
O2842       O  0.75358286  0.80944094  0.86021824    -0.60100
H2843       H  0.75245275  0.79857018  0.87626063     0.43930
H2844       H  0.64192638  0.81044142  0.83106557     0.43890
C2845       C  0.70624084  0.93873886  0.68908871    -0.05170
C2846       C  0.70647725  0.96583830  0.69446246    -0.32600
C2847       C  0.71566136  0.98376146  0.67602874     0.36650
C2848       C  0.72500163  0.97467478  0.65170321    -0.05530
C2849       C  0.72529407  0.94745604  0.64653600    -0.32500
C2850       C  0.71618558  0.92948583  0.66515272     0.36550
H2851       H  0.69887505  0.97318927  0.71287484     0.16920
O2852       O  0.71471152  0.01015425  0.68175953    -0.60000
H2853       H  0.73262152  0.94008038  0.62803290     0.16940
O2854       O  0.71573552  0.90313666  0.65924086    -0.60100
H2855       H  0.73364108  0.89665057  0.66305466     0.43930
H2856       H  0.69756748  0.01631688  0.67505035     0.43890
C2857       C  0.62979180  0.92278829  0.74537339    -0.05170
C2858       C  0.61149896  0.93415895  0.72810301    -0.32600
C2859       C  0.59239441  0.95169700  0.73725132     0.36650
C2860       C  0.59059200  0.95703340  0.76406612    -0.05530
C2861       C  0.60692417  0.94370557  0.78157365    -0.32500
C2862       C  0.62655641  0.92678390  0.77248521     0.36550
H2863       H  0.61327615  0.93098036  0.70723419     0.16920
O2864       O  0.57609422  0.96404602  0.71985241    -0.60000
H2865       H  0.60571849  0.94795382  0.80227283     0.16940
O2866       O  0.64424864  0.91687505  0.79004512    -0.60100
H2867       H  0.63544899  0.90154354  0.79815292     0.43930
H2868       H  0.58562315  0.98008031  0.71428669     0.43890
C2869       C  0.70830053  0.86347386  0.75169113    -0.05170
C2870       C  0.70242152  0.83709788  0.74644914    -0.32600
C2871       C  0.71674257  0.81690415  0.75832635     0.36650
C2872       C  0.73678243  0.82303747  0.77615443    -0.05530
C2873       C  0.74250192  0.84941740  0.78166114    -0.32500
C2874       C  0.72847860  0.86964117  0.76936432     0.36550
H2875       H  0.68694061  0.83219055  0.73287776     0.16920
O2876       O  0.71068425  0.79112365  0.75299657    -0.60000
H2877       H  0.75784011  0.85425197  0.79541259     0.16940
O2878       O  0.73410001  0.89537562  0.77519717    -0.60100
H2879       H  0.74862783  0.90020310  0.76328163     0.43930
H2880       H  0.71768372  0.78762326  0.73525129     0.43890
C2881       C  0.90086325  0.65073347  0.72060889    -0.05170
C2882       C  0.91368614  0.65228110  0.74475749    -0.32600
C2883       C  0.93097800  0.63243064  0.75270280     0.36650
C2884       C  0.93535958  0.61043881  0.73656728    -0.05530
C2885       C  0.92185925  0.60822013  0.71285669    -0.32500
C2886       C  0.90485513  0.62837450  0.70467025     0.36550
H2887       H  0.91139752  0.66964852  0.75689721     0.16920
O2888       O  0.94502686  0.63545716  0.77535489    -0.60000
H2889       H  0.92522715  0.59135419  0.70028604     0.16940
O2890       O  0.89230162  0.62617466  0.68110136    -0.60100
H2891       H  0.90586155  0.62971603  0.66768270     0.43930
H2892       H  0.93195067  0.63814189  0.78943615     0.43890
C2893       C  0.90174232  0.72806436  0.66375680    -0.05170
C2894       C  0.92187177  0.74346397  0.67410341    -0.32600
C2895       C  0.93999165  0.75549146  0.65767738     0.36650
C2896       C  0.93780861  0.75260399  0.63043062    -0.05530
C2897       C  0.91666601  0.73853760  0.61992704    -0.32500
C2898       C  0.89874268  0.72600876  0.63653368     0.36550
H2899       H  0.92420005  0.74519759  0.69508542     0.16920
O2900       O  0.95980005  0.77011769  0.66839110    -0.60000
H2901       H  0.91478635  0.73626127  0.59896304     0.16940
O2902       O  0.87913604  0.71097009  0.62609220    -0.60100
H2903       H  0.86382112  0.72294264  0.62491293     0.43930
H2904       H  0.97296887  0.75708578  0.67439019     0.43890
C2905       C  0.83986961  0.72593019  0.73761925    -0.05170
C2906       C  0.81335306  0.72761518  0.73113332    -0.32600
C2907       C  0.79602149  0.74169613  0.74704355     0.36650
C2908       C  0.80521255  0.75462232  0.76958237    -0.05530
C2909       C  0.83182394  0.75319277  0.77597904    -0.32500
C2910       C  0.84918336  0.73897232  0.76004269     0.36550
H2911       H  0.80609851  0.71789853  0.71374587     0.16920
O2912       O  0.77004128  0.74276288  0.74044562    -0.60000
H2913       H  0.83907476  0.76312005  0.79323636     0.16940
O2914       O  0.87520770  0.73798398  0.76640860    -0.60100
H2915       H  0.88338159  0.75260701  0.75652648     0.43930
H2916       H  0.76162913  0.72844439  0.75055422     0.43890
C2917       C  0.63859588  0.70447493  0.94298183    -0.05170
C2918       C  0.64224641  0.70194269  0.96999764    -0.32600
C2919       C  0.62315978  0.70965072  0.98781279     0.36650
C2920       C  0.59945556  0.72110214  0.97911743    -0.05530
C2921       C  0.59597515  0.72450516  0.95193667    -0.32500
C2922       C  0.61534856  0.71628899  0.93391969     0.36550
H2923       H  0.66023024  0.69360702  0.97760080     0.16920
O2924       O  0.62807986  0.70544106  0.01379771    -0.60000
H2925       H  0.57815636  0.73334394  0.94456921     0.16940
O2926       O  0.61084934  0.71875977  0.90763856    -0.60100
H2927       H  0.61429817  0.73752210  0.90359639     0.43930
H2928       H  0.63974432  0.72004895  0.01915943     0.43890
C2929       C  0.70901125  0.64044443  0.93824289    -0.05170
C2930       C  0.69590443  0.61704250  0.94503275    -0.32600
C2931       C  0.70584121  0.60032080  0.96443372     0.36650
C2932       C  0.72891334  0.60711144  0.97761931    -0.05530
C2933       C  0.74268187  0.62965686  0.97009616    -0.32500
C2934       C  0.73313779  0.64610556  0.95034662     0.36550
H2935       H  0.67729568  0.61237042  0.93608591     0.16920
O2936       O  0.69213485  0.57823024  0.97139268    -0.60000
H2937       H  0.76073994  0.63476958  0.97990743     0.16940
O2938       O  0.74639326  0.66884764  0.94471106    -0.60100
H2939       H  0.76083841  0.66338902  0.93289899     0.43930
H2940       H  0.69953902  0.56385321  0.96049706     0.43890
C2941       C  0.71001908  0.71684549  0.87619872    -0.05170
C2942       C  0.69920525  0.72218373  0.85162015    -0.32600
C2943       C  0.71285291  0.73746029  0.83323278     0.36650
C2944       C  0.73755567  0.74809817  0.83945929    -0.05530
C2945       C  0.74811188  0.74305291  0.86428747    -0.32500
C2946       C  0.73473964  0.72733103  0.88240415     0.36550
H2947       H  0.68036205  0.71399980  0.84645341     0.16920
O2948       O  0.70250599  0.74098625  0.80874254    -0.60000
H2949       H  0.76666632  0.75149457  0.86983568     0.16940
O2950       O  0.74598008  0.72238537  0.90621288    -0.60100
H2951       H  0.73875557  0.73602122  0.91811462     0.43930
H2952       H  0.68571005  0.75044608  0.81140195     0.43890
loop_ 
_geom_bond_atom_site_label_1 
_geom_bond_atom_site_label_2 
_geom_bond_distance 
_geom_bond_site_symmetry_2 
_ccdc_geom_bond_type 
C1            C2   1.409       .  A
C1            C6   1.403       .  A
C1         C2917   1.492       .  S
C2            C3   1.413       .  A
C2            H7   1.083       .  S
C3            C4   1.409       .  A
C3         C2941   1.486       .  S
C4            C5   1.405       .  A
C4            H8   1.084       .  S
C5            C6   1.397       .  A
C5         C2929   1.488       .  S
C6            H9   1.084       .  S
C10          C11   1.400       .  A
C10          C15   1.404       .  A
C10        C2905   1.472       .  S
C11          C12   1.399       .  A
C11          H16   1.084       .  S
C12          C13   1.400       .  A
C12        C2893   1.468       .  S
C13          C14   1.402       .  A
C13          H17   1.084       .  S
C14          C15   1.407       .  A
C14        C2881   1.482       .  S
C15          H18   1.084       .  S
C19          C20   1.406       .  A
C19          C24   1.403       .  A
C19        C2869   1.473       .  S
C20          C21   1.408       .  A
C20          H25   1.083       .  S
C21          C22   1.401       .  A
C21        C2857   1.487       .  S
C22          C23   1.396       .  A
C22          H26   1.084       .  S
C23          C24   1.399       .  A
C23        C2845   1.474       .  S
C24          H27   1.084       .  S
C28          C29   1.414       .  A
C28          C33   1.412       .  A
C28        C2821   1.479       .  S
C29          C30   1.415       .  A
C29        C2944   1.501       .  S
C30          C31   1.416       .  A
C30        C2833   1.485       .  S
C31          C32   1.411       .  A
C31        C2872   1.481       .  S
C32          C33   1.410       .  A
C32        C2809   1.496       .  S
C33        C2908   1.482       .  S
C34          C35   1.397       .  A
C34          C39   1.394       .  A
C34        C2773   1.463       .  S
C35          C36   1.401       .  A
C35          H40   1.084       .  S
C36          C37   1.403       .  A
C36        C2797   1.463       .  S
C37          C38   1.398       .  A
C37          H41   1.084       .  S
C38          C39   1.397       .  A
C38        C2785   1.462       .  S
C39          H42   1.085       .  S
C43          C44   1.404       .  A
C43          C48   1.406       .  A
C43        C2761   1.479       .  S
C44          C45   1.404       .  A
C44          H49   1.084       .  S
C45          C46   1.399       .  A
C45        C2749   1.479       .  S
C46          C47   1.404       .  A
C46          H50   1.084       .  S
C47          C48   1.406       .  A
C47        C2737   1.487       .  S
C48          H51   1.083       .  S
C52          C53   1.398       .  A
C52          C57   1.393       .  A
C52        C2713   1.482       .  S
C53          C54   1.410       .  A
C53          H58   1.083       .  S
C54          C55   1.416       .  A
C54        C2725   1.489       .  S
C55          C56   1.411       .  A
C55          H59   1.083       .  S
C56          C57   1.404       .  A
C56        C2701   1.495       .  S
C57          H60   1.084       .  S
C61          C62   1.398       .  A
C61          C66   1.410       .  A
C61        C2677   1.490       .  S
C62          C63   1.394       .  A
C62          H67   1.085       .  S
C63          C64   1.404       .  A
C63        C2689   1.478       .  S
C64          C65   1.412       .  A
C64          H68   1.084       .  S
C65          C66   1.413       .  A
C65        C2665   1.489       .  S
C66          H69   1.083       .  S
C70          C71   1.403       .  A
C70          C75   1.412       .  A
C70        C2812   1.482       .  S
C71          C72   1.398       .  A
C71          H76   1.084       .  S
C72          C73   1.395       .  A
C72        C2653   1.481       .  S
C73          C74   1.412       .  A
C73          H77   1.082       .  S
C74          C75   1.417       .  A
C74        C2644   1.511       .  S
C75          H78   1.080       .  S
C79          C80   1.394       .  A
C79          C84   1.399       .  A
C79        C2617   1.470       .  S
C80          C81   1.400       .  A
C80          H85   1.085       .  S
C81          C82   1.406       .  A
C81        C2629   1.481       .  S
C82          C83   1.409       .  A
C82          H86   1.083       .  S
C83          C84   1.408       .  A
C83        C2605   1.482       .  S
C84          H87   1.084       .  S
C88          C89   1.398       .  A
C88          C93   1.402       .  A
C88        C2584   1.471       .  S
C89          C90   1.397       .  A
C89          H94   1.085       .  S
C90          C91   1.404       .  A
C90        C2593   1.471       .  S
C91          C92   1.404       .  A
C91          H95   1.084       .  S
C92          C93   1.401       .  A
C92        C2824   1.471       .  S
C93          H96   1.084       .  S
C97          C98   1.391       .  A
C97         C102   1.406       .  A
C97        C2557   1.475       .  S
C98          C99   1.384       .  A
C98         H103   1.085       .  S
C99         C100   1.397       .  A
C99        C2569   1.468       .  S
C100        C101   1.420       .  A
C100        H104   1.079       .  S
C101        C102   1.419       .  A
C101       C2545   1.509       .  S
C102        H105   1.079       .  S
C106        C107   1.395       .  A
C106        C111   1.404       .  A
C106       C2521   1.470       .  S
C107        C108   1.396       .  A
C107        H112   1.085       .  S
C108        C109   1.401       .  A
C108       C2533   1.473       .  S
C109        C110   1.407       .  A
C109        H113   1.084       .  S
C110        C111   1.410       .  A
C110       C2509   1.481       .  S
C111        H114   1.084       .  S
O115       Zr127   2.436   1_655  S
O115        C117   1.287       .  A
O116       Zr153   2.414       .  S
O116        C117   1.283       .  A
C117       C2896   1.468       .  S
O118       Zr130   2.474       .  S
O118        C120   1.292       .  A
O119       Zr154   2.379       .  S
O119        C120   1.278       .  A
C120       C2524   1.486       .  S
O121       Zr130   2.436   1_655  S
O121        C123   1.286       .  A
O122       Zr153   2.443       .  S
O122        C123   1.291       .  A
C123       C2656   1.496       .  S
O124       Zr127   2.429       .  S
O124        C126   1.288       .  A
O125       Zr154   2.427       .  S
O125        C126   1.286       .  A
C126       C2473   1.489       .  S
Zr127       O128   2.433       .  S
Zr127       O129   2.435       .  S
Zr127       O133   2.360       .  S
Zr127       O134   2.366       .  S
Zr127       O157   2.369       .  S
Zr127       O159   2.362       .  S
O128        H171   0.990       .  S
O129        H170   0.990       .  S
O129        H174   0.990       .  S
Zr130       O131   2.438       .  S
Zr130       O132   2.434       .  S
Zr130       O134   2.368       .  S
Zr130       O133   2.375       .  S
Zr130       O158   2.394       .  S
Zr130       O160   2.374       .  S
O131        H172   0.990       .  S
O131        H175   0.990       .  S
O132        H165   0.990       .  S
O133       Zr153   2.376   1_455  S
O134       Zr154   2.378       .  S
O134        H161   0.965       .  S
O135       Zr147   2.465       .  S
O135        C137   1.291       .  A
O136       Zr154   2.400       .  S
O136        C137   1.280       .  A
C137       C2485   1.467       .  S
O138       Zr150   2.457   1_655  S
O138        C140   1.290       .  A
O139       Zr153   2.414       .  S
O139        C140   1.285       .  A
C140       C2692   1.490       .  S
O141       Zr150   2.449       .  S
O141        C143   1.288       .  A
O142       Zr154   2.403       .  S
O142        C143   1.284       .  A
C143       C2560   1.478       .  S
O144       Zr147   2.402   1_655  S
O144        C146   1.281       .  A
O145       Zr153   2.437       .  S
O145        C146   1.287       .  A
C146       C2497   1.482       .  S
Zr147       O148   2.436       .  S
Zr147       O149   2.434       .  S
Zr147       O155   2.347       .  S
Zr147       O156   2.375       .  S
Zr147       O159   2.375       .  S
Zr147       O157   2.355       .  S
O148        H168   0.990       .  S
O148        H173   0.990       .  S
O149        H169   0.990       .  S
Zr150       O151   2.435       .  S
Zr150       O152   2.434       .  S
Zr150       O156   2.364       .  S
Zr150       O155   2.380       .  S
Zr150       O160   2.383       .  S
Zr150       O158   2.380       .  S
O151        H167   0.990       .  S
O152        H166   0.990       .  S
O152        H176   0.990       .  S
Zr153       O156   2.381   1_655  S
Zr153       O158   2.398   1_655  S
Zr153       O159   2.392   1_655  S
Zr154       O155   2.377       .  S
Zr154       O157   2.373       .  S
Zr154       O160   2.386       .  S
O155        H163   0.965       .  S
O158        H162   0.966   1_455  S
O159        H164   0.966   1_455  S
C177        C178   1.415       .  A
C177        C182   1.405       .  A
C177       C2461   1.481       .  S
C178        C179   1.411       .  A
C178        H183   1.083       .  S
C179        C180   1.399       .  A
C179       C2437   1.484       .  S
C180        C181   1.390       .  A
C180        H184   1.086       .  S
C181        C182   1.398       .  A
C181       C2449   1.468       .  S
C182        H185   1.084       .  S
C186        C187   1.410       .  A
C186        C191   1.408       .  A
C186       C2425   1.478       .  S
C187        C188   1.404       .  A
C187        H192   1.084       .  S
C188        C189   1.394       .  A
C188       C2413   1.472       .  S
C189        C190   1.393       .  A
C189        H193   1.086       .  S
C190        C191   1.402       .  A
C190       C2404   1.468       .  S
C191        H194   1.084       .  S
C195        C196   1.415       .  A
C195        C200   1.418       .  A
C195       C2389   1.494       .  S
C196        C197   1.415       .  A
C196       C2428   1.491       .  S
C197        C198   1.415       .  A
C197       C2512   1.492       .  S
C198        C199   1.417       .  A
C198       C2377   1.495       .  S
C199        C200   1.420       .  A
C199       C2368   1.491       .  S
C200       C2464   1.494       .  S
C201        C202   1.410       .  A
C201        C206   1.407       .  A
C201       C2380   1.479       .  S
C202        C203   1.407       .  A
C202        H207   1.084       .  S
C203        C204   1.399       .  A
C203       C2476   1.488       .  S
C204        C205   1.395       .  A
C204        H208   1.085       .  S
C205        C206   1.401       .  A
C205       C2353   1.471       .  S
C206        H209   1.084       .  S
O210       Zr222   2.428   1_655  S
O210        C212   1.286       .  A
O211       Zr248   2.417       .  S
O211        C212   1.285       .  A
C212       C2581   1.482       .  S
O213       Zr225   2.457       .  S
O213        C215   1.291       .  A
O214       Zr249   2.408       .  S
O214        C215   1.282       .  A
C215       C2356   1.476       .  S
O216       Zr225   2.445   1_655  S
O216        C218   1.287       .  A
O217       Zr248   2.422       .  S
O217        C218   1.284       .  A
C218       C2884   1.470       .  S
O219       Zr222   2.455       .  S
O219        C221   1.289       .  A
O220       Zr249   2.410       .  S
O220        C221   1.283       .  A
C221       C2332   1.475       .  S
Zr222       O223   2.433       .  S
Zr222       O224   2.434       .  S
Zr222       O228   2.374   1_455  S
Zr222       O229   2.362       .  S
Zr222       O252   2.371       .  S
Zr222       O254   2.380   1_455  S
O223        H266   0.990       .  S
O224        H265   0.990       .  S
O224        H269   0.990       .  S
Zr225       O226   2.436       .  S
Zr225       O227   2.434       .  S
Zr225       O229   2.373       .  S
Zr225       O228   2.372   1_455  S
Zr225       O253   2.377   1_455  S
Zr225       O255   2.372       .  S
O226        H267   0.990       .  S
O226        H270   0.990       .  S
O227        H260   0.990       .  S
O228       Zr248   2.370       .  S
O229       Zr249   2.374       .  S
O229        H256   0.965       .  S
O230       Zr242   2.455       .  S
O230        C232   1.289       .  A
O231       Zr249   2.409       .  S
O231        C232   1.284       .  A
C232       C2344   1.478       .  S
O233       Zr245   2.478   1_655  S
O233        C235   1.295       .  A
O234       Zr248   2.405       .  S
O234        C235   1.281       .  A
C235       C2305   1.478       .  S
O236       Zr245   2.483       .  S
O236        C238   1.295       .  A
O237       Zr249   2.376       .  S
O237        C238   1.276       .  A
C238       C2317   1.463       .  S
O239       Zr242   2.441   1_655  S
O239        C241   1.288       .  A
O240       Zr248   2.417       .  S
O240        C241   1.285       .  A
C241       C2620   1.490       .  S
Zr242       O243   2.437       .  S
Zr242       O244   2.434       .  S
Zr242       O250   2.367       .  S
Zr242       O251   2.366   1_455  S
Zr242       O254   2.380   1_455  S
Zr242       O252   2.378       .  S
O243        H263   0.990       .  S
O243        H268   0.990       .  S
O244        H264   0.990       .  S
Zr245       O246   2.434       .  S
Zr245       O247   2.434       .  S
Zr245       O251   2.367   1_455  S
Zr245       O250   2.374       .  S
Zr245       O255   2.379       .  S
Zr245       O253   2.384   1_455  S
O246        H262   0.990       .  S
O247        H261   0.990       .  S
O247        H271   0.990       .  S
Zr248       O251   2.377       .  S
Zr248       O253   2.391       .  S
Zr248       O254   2.388       .  S
Zr249       O250   2.384       .  S
Zr249       O252   2.374       .  S
Zr249       O255   2.386       .  S
O250        H258   0.965       .  S
O253        H257   0.966       .  S
O254        H259   0.966       .  S
C272        C273   1.398       .  A
C272        C277   1.404       .  A
C272       C2341   1.480       .  S
C273        C274   1.397       .  A
C273        H278   1.085       .  S
C274        C275   1.401       .  A
C274       C2293   1.475       .  S
C275        C276   1.409       .  A
C275        H279   1.083       .  S
C276        C277   1.412       .  A
C276       C2281   1.486       .  S
C277        H280   1.084       .  S
C281        C282   1.407       .  A
C281        C286   1.402       .  A
C281       C2329   1.480       .  S
C282        C283   1.408       .  A
C282        H287   1.083       .  S
C283        C284   1.406       .  A
C283       C2365   1.485       .  S
C284        C285   1.405       .  A
C284        H288   1.084       .  S
C285        C286   1.400       .  A
C285       C2272   1.484       .  S
C286        H289   1.084       .  S
C290        C291   1.409       .  A
C290        C295   1.400       .  A
C290       C2245   1.485       .  S
C291        C292   1.407       .  A
C291        H296   1.084       .  S
C292        C293   1.406       .  A
C292       C2392   1.481       .  S
C293        C294   1.403       .  A
C293        H297   1.084       .  S
C294        C295   1.399       .  A
C294       C2257   1.478       .  S
C295        H298   1.084       .  S
C299        C300   1.401       .  A
C299        C304   1.397       .  A
C299       C2221   1.473       .  S
C300        C301   1.403       .  A
C300        H305   1.084       .  S
C301        C302   1.404       .  A
C301       C2836   1.470       .  S
C302        C303   1.399       .  A
C302        H306   1.084       .  S
C303        C304   1.394       .  A
C303       C2233   1.464       .  S
C304        H307   1.085       .  S
C308        C309   1.420       .  A
C308        C313   1.427       .  A
C308       C2197   1.521       .  S
C309        C310   1.404       .  A
C309        H314   1.077       .  S
C310        C311   1.389       .  A
C310       C2488   1.482       .  S
C311        C312   1.393       .  A
C311        H315   1.085       .  S
C312        C313   1.414       .  A
C312       C2212   1.490       .  S
C313        H316   1.082       .  S
C317        C318   1.426       .  A
C317        C322   1.417       .  A
C317       C2728   1.505       .  S
C318        C319   1.431       .  A
C318       C2548   1.534       .  S
C319        C320   1.430       .  A
C319       C2200   1.543       .  S
C320        C321   1.434       .  A
C320       C2161   1.534       .  S
C321        C322   1.422       .  A
C321       C2176   1.510       .  S
C322       C2185   1.486       .  S
C323        C324   1.407       .  A
C323        C328   1.412       .  A
C323       C2173   1.487       .  S
C324        C325   1.407       .  A
C324        H329   1.083       .  S
C325        C326   1.402       .  A
C325       C2149   1.491       .  S
C326        C327   1.399       .  A
C326        H330   1.084       .  S
C327        C328   1.404       .  A
C327       C2140   1.481       .  S
C328        H331   1.084       .  S
O332       Zr344   2.433       .  S
O332        C334   1.286       .  A
O333       Zr370   2.406   1_556  S
O333        C334   1.281   1_556  A
C334       C2788   1.466   1_554  S
O335       Zr347   2.453       .  S
O335        C337   1.288       .  A
O336       Zr371   2.437       .  S
O336        C337   1.289       .  A
C337       C2113   1.489       .  S
O338       Zr347   2.454       .  S
O338        C340   1.288   1_554  A
O339       Zr370   2.395   1_556  S
O339        C340   1.282       .  A
C340       C2296   1.480       .  S
O341       Zr344   2.434       .  S
O341        C343   1.286       .  A
O342       Zr371   2.432       .  S
O342        C343   1.286       .  A
C343       C2125   1.467       .  S
Zr344       O345   2.434       .  S
Zr344       O346   2.434       .  S
Zr344       O350   2.368       .  S
Zr344       O351   2.365       .  S
Zr344       O374   2.365       .  S
Zr344       O376   2.360       .  S
O345        H388   0.990       .  S
O346        H387   0.990       .  S
O346        H391   0.990       .  S
Zr347       O348   2.439       .  S
Zr347       O349   2.434       .  S
Zr347       O351   2.372       .  S
Zr347       O350   2.370       .  S
Zr347       O375   2.375       .  S
Zr347       O377   2.383       .  S
O348        H389   0.990       .  S
O348        H392   0.990       .  S
O349        H382   0.990       .  S
O350       Zr370   2.366       .  S
O351       Zr371   2.384       .  S
O351        H378   0.963       .  S
O352       Zr364   2.454       .  S
O352        C354   1.290       .  A
O353       Zr371   2.414       .  S
O353        C354   1.284       .  A
C354       C2152   1.466       .  S
O355       Zr367   2.464       .  S
O355        C357   1.291   1_554  A
O356       Zr370   2.403   1_556  S
O356        C357   1.283       .  A
C357       C2269   1.483       .  S
O358       Zr367   2.449       .  S
O358        C360   1.289       .  A
O359       Zr371   2.430       .  S
O359        C360   1.288       .  A
C360       C2101   1.483       .  S
O361       Zr364   2.464       .  S
O361        C363   1.292       .  A
O362       Zr370   2.385   1_556  S
O362        C363   1.278   1_556  A
C363       C2452   1.465   1_554  S
Zr364       O365   2.436       .  S
Zr364       O366   2.434       .  S
Zr364       O372   2.368       .  S
Zr364       O373   2.369       .  S
Zr364       O376   2.370       .  S
Zr364       O374   2.382       .  S
O365        H385   0.990       .  S
O365        H390   0.990       .  S
O366        H386   0.990       .  S
Zr367       O368   2.434       .  S
Zr367       O369   2.434       .  S
Zr367       O373   2.370       .  S
Zr367       O372   2.377       .  S
Zr367       O377   2.390       .  S
Zr367       O375   2.378       .  S
O368        H384   0.990       .  S
O369        H383   0.990       .  S
O369        H393   0.990       .  S
Zr370       O373   2.371       .  S
Zr370       O375   2.382       .  S
Zr370       O376   2.381       .  S
Zr371       O372   2.391       .  S
Zr371       O374   2.391       .  S
Zr371       O377   2.392       .  S
O372        H380   0.965       .  S
O375        H379   0.966       .  S
O376        H381   0.966       .  S
O394       Zr406   2.452       .  S
O394        C396   1.289       .  A
O395       Zr432   2.413       .  S
O395        C396   1.285   1_455  A
C396       C2752   1.488       .  S
O397       Zr409   2.440       .  S
O397        C399   1.287       .  A
O398       Zr433   2.430   1_655  S
O398        C399   1.287       .  A
C399       C2032   1.469       .  S
O400       Zr409   2.410       .  S
O400        C402   1.284       .  A
O401       Zr432   2.446       .  S
O401        C402   1.288   1_455  A
C402       C2041   1.488       .  S
O403       Zr406   2.441       .  S
O403        C405   1.289       .  A
O404       Zr433   2.435   1_655  S
O404        C405   1.289       .  A
C405       C2089   1.492       .  S
Zr406       O407   2.434       .  S
Zr406       O408   2.434   1_655  S
Zr406       O412   2.370       .  S
Zr406       O413   2.376       .  S
Zr406       O436   2.385   1_655  S
Zr406       O438   2.373   1_655  S
O407        H450   0.990       .  S
O408        H449   0.990   1_455  S
O408        H453   0.990   1_455  S
Zr409       O410   2.436       .  S
Zr409       O411   2.436       .  S
Zr409       O413   2.350       .  S
Zr409       O412   2.369       .  S
Zr409       O437   2.365   1_655  S
Zr409       O439   2.360   1_655  S
O410        H451   0.990       .  S
O410        H454   0.990       .  S
O411        H444   0.990   1_655  S
O412       Zr432   2.384   1_655  S
O413       Zr433   2.389   1_655  S
O413        H440   0.964       .  S
O414       Zr426   2.463       .  S
O414        C416   1.291       .  A
O415       Zr433   2.429       .  S
O415        C416   1.288       .  A
C416       C2209   1.487       .  S
O417       Zr429   2.402       .  S
O417        C419   1.282       .  A
O418       Zr432   2.444       .  S
O418        C419   1.287       .  A
C419       C2065   1.490       .  S
O420       Zr429   2.403       .  S
O420        C422   1.283       .  A
O421       Zr433   2.450       .  S
O421        C422   1.289       .  A
C422       C2077   1.491       .  S
O423       Zr426   2.439       .  S
O423        C425   1.287       .  A
O424       Zr432   2.417       .  S
O424        C425   1.287       .  A
C425       C2056   1.478       .  S
Zr426       O427   2.439       .  S
Zr426       O428   2.434       .  S
Zr426       O434   2.368       .  S
Zr426       O435   2.378       .  S
Zr426       O438   2.384       .  S
Zr426       O436   2.377       .  S
O427        H447   0.990       .  S
O427        H452   0.990       .  S
O428        H448   0.990       .  S
Zr429       O430   2.434       .  S
Zr429       O431   2.434       .  S
Zr429       O435   2.358       .  S
Zr429       O434   2.348       .  S
Zr429       O439   2.360       .  S
Zr429       O437   2.350       .  S
O430        H446   0.990       .  S
O431        H445   0.990       .  S
O431        H455   0.990       .  S
Zr432       O435   2.383       .  S
Zr432       O437   2.387       .  S
Zr432       O438   2.404       .  S
Zr433       O434   2.389       .  S
Zr433       O436   2.402       .  S
Zr433       O439   2.387       .  S
O434        H442   0.964       .  S
O437        H441   0.966       .  S
O438        H443   0.966       .  S
C456        C457   1.395       .  A
C456        C461   1.406       .  A
C456       C2116   1.481       .  S
C457        C458   1.402       .  A
C457        H462   1.083       .  S
C458        C459   1.405       .  A
C458       C2068   1.493       .  S
C459        C460   1.410       .  A
C459        H463   1.083       .  S
C460        C461   1.413       .  A
C460       C2017   1.487       .  S
C461        H464   1.083       .  S
C465        C466   1.393       .  A
C465        C470   1.395       .  A
C465       C2008   1.474       .  S
C466        C467   1.407       .  A
C466        H471   1.080       .  S
C467        C468   1.414       .  A
C467       C2044   1.505       .  S
C468        C469   1.412       .  A
C468        H472   1.082       .  S
C469        C470   1.403       .  A
C469       C1996   1.476       .  S
C470        H473   1.084       .  S
C474        C475   1.401       .  A
C474        C479   1.395       .  A
C474       C1981   1.473       .  S
C475        C476   1.409       .  A
C475        H480   1.083       .  S
C476        C477   1.413       .  A
C476       C1969   1.496       .  S
C477        C478   1.411       .  A
C477        H481   1.083       .  S
C478        C479   1.402       .  A
C478       C2029   1.490       .  S
C479        H482   1.083       .  S
O483       Zr495   2.464       .  S
O483        C485   1.292   1_554  A
O484       Zr521   2.404   1_556  S
O484        C485   1.281       .  A
C485       C2932   1.468       .  S
O486       Zr498   2.455       .  S
O486        C488   1.290       .  A
O487       Zr522   2.418       .  S
O487        C488   1.285       .  A
C488       C1984   1.492       .  S
O489       Zr498   2.453       .  S
O489        C491   1.290   1_554  A
O490       Zr521   2.403   1_556  S
O490        C491   1.283       .  A
C491       C2596   1.483       .  S
O492       Zr495   2.451       .  S
O492        C494   1.290       .  A
O493       Zr522   2.432       .  S
O493        C494   1.287       .  A
C494       C1933   1.472       .  S
Zr495       O496   2.433       .  S
Zr495       O497   2.434       .  S
Zr495       O501   2.364       .  S
Zr495       O502   2.374       .  S
Zr495       O525   2.381       .  S
Zr495       O527   2.375       .  S
O496        H539   0.990       .  S
O497        H538   0.990       .  S
O497        H542   0.990       .  S
Zr498       O499   2.438       .  S
Zr498       O500   2.434       .  S
Zr498       O502   2.370       .  S
Zr498       O501   2.370       .  S
Zr498       O526   2.378       .  S
Zr498       O528   2.383       .  S
O499        H540   0.990       .  S
O499        H543   0.990       .  S
O500        H533   0.990       .  S
O501       Zr521   2.373       .  S
O502       Zr522   2.391       .  S
O502        H529   0.965       .  S
O503       Zr515   2.437       .  S
O503        C505   1.286       .  A
O504       Zr522   2.429       .  S
O504        C505   1.285       .  A
C505       C1945   1.469       .  S
O506       Zr518   2.449       .  S
O506        C508   1.288   1_554  A
O507       Zr521   2.404   1_556  S
O507        C508   1.283       .  A
C508       C2632   1.477       .  S
O509       Zr518   2.437       .  S
O509        C511   1.286       .  A
O510       Zr522   2.437       .  S
O510        C511   1.290       .  A
C511       C2005   1.482       .  S
O512       Zr515   2.428       .  S
O512        C514   1.286       .  A
O513       Zr521   2.419   1_556  S
O513        C514   1.284   1_556  A
C514       C1957   1.476   1_554  S
Zr515       O516   2.438       .  S
Zr515       O517   2.434       .  S
Zr515       O523   2.363       .  S
Zr515       O524   2.367       .  S
Zr515       O527   2.365       .  S
Zr515       O525   2.370       .  S
O516        H536   0.990       .  S
O516        H541   0.990       .  S
O517        H537   0.990       .  S
Zr518       O519   2.434       .  S
Zr518       O520   2.434       .  S
Zr518       O524   2.366       .  S
Zr518       O523   2.373       .  S
Zr518       O528   2.379       .  S
Zr518       O526   2.372       .  S
O519        H535   0.990       .  S
O520        H534   0.990       .  S
O520        H544   0.990       .  S
Zr521       O524   2.366       .  S
Zr521       O526   2.387       .  S
Zr521       O527   2.384       .  S
Zr522       O523   2.386       .  S
Zr522       O525   2.391       .  S
Zr522       O528   2.394       .  S
O523        H531   0.964       .  S
O526        H530   0.966       .  S
O527        H532   0.966       .  S
C545        C546   1.401       .  A
C545        C550   1.395       .  A
C545       C1909   1.471       .  S
C546        C547   1.404       .  A
C546        H551   1.084       .  S
C547        C548   1.406       .  A
C547       C1921   1.470       .  S
C548        C549   1.401       .  A
C548        H552   1.083       .  S
C549        C550   1.392       .  A
C549       C1897   1.464       .  S
C550        H553   1.085       .  S
C554        C555   1.389       .  A
C554        C559   1.403       .  A
C554       C2092   1.477       .  S
C555        C556   1.398       .  A
C555        H560   1.084       .  S
C556        C557   1.403       .  A
C556       C2500   1.490       .  S
C557        C558   1.419       .  A
C557        H561   1.068       .  S
C558        C559   1.420       .  A
C558       C1885   1.521       .  S
C559        H562   1.080       .  S
C563        C564   1.424       .  A
C563        C568   1.409       .  A
C563       C1924   1.490       .  S
C564        C565   1.450       .  A
C564       C2668   1.511       .  S
C565        C566   1.443       .  A
C565       C1888   1.551       .  S
C566        C567   1.425       .  A
C566       C1972   1.514       .  S
C567        C568   1.408       .  A
C567       C1873   1.489       .  S
C568       C1861   1.498       .  S
C569        C570   1.407       .  A
C569        C574   1.408       .  A
C569       C1876   1.481       .  S
C570        C571   1.407       .  A
C570        H575   1.084       .  S
C571        C572   1.402       .  A
C571       C1936   1.489       .  S
C572        C573   1.403       .  A
C572        H576   1.084       .  S
C573        C574   1.405       .  A
C573       C1849   1.483       .  S
C574        H577   1.084       .  S
O578       Zr590   2.425       .  S
O578        C580   1.284   1_554  A
O579       Zr616   2.417   1_556  S
O579        C580   1.286       .  A
C580       C2224   1.474       .  S
O581       Zr593   2.431       .  S
O581        C583   1.286       .  A
O582       Zr617   2.452       .  S
O582        C583   1.290       .  A
C583       C1852   1.492       .  S
O584       Zr593   2.438       .  S
O584        C586   1.287   1_554  A
O585       Zr616   2.436   1_556  S
O585        C586   1.288       .  A
C586       C2920   1.498       .  S
O587       Zr590   2.431       .  S
O587        C589   1.287       .  A
O588       Zr617   2.427       .  S
O588        C589   1.287       .  A
C589       C1828   1.479       .  S
Zr590       O591   2.434       .  S
Zr590       O592   2.435       .  S
Zr590       O596   2.367       .  S
Zr590       O597   2.362       .  S
Zr590       O620   2.368       .  S
Zr590       O622   2.369       .  S
O591        H634   0.990       .  S
O592        H633   0.990       .  S
O592        H637   0.990       .  S
Zr593       O594   2.435       .  S
Zr593       O595   2.434       .  S
Zr593       O597   2.368       .  S
Zr593       O596   2.363       .  S
Zr593       O621   2.363       .  S
Zr593       O623   2.373       .  S
O594        H635   0.990       .  S
O594        H638   0.990       .  S
O595        H628   0.990       .  S
O596       Zr616   2.371       .  S
O597       Zr617   2.386       .  S
O597        H624   0.964       .  S
O598       Zr610   2.453       .  S
O598        C600   1.290       .  A
O599       Zr617   2.429       .  S
O599        C600   1.288       .  A
C600       C1837   1.486       .  S
O601       Zr613   2.446       .  S
O601        C603   1.289   1_554  A
O602       Zr616   2.420   1_556  S
O602        C603   1.285       .  A
C603       C2440   1.492       .  S
O604       Zr613   2.444       .  S
O604        C606   1.290       .  A
O605       Zr617   2.440       .  S
O605        C606   1.289       .  A
C606       C2137   1.488       .  S
O607       Zr610   2.448       .  S
O607        C609   1.289   1_554  A
O608       Zr616   2.423   1_556  S
O608        C609   1.287       .  A
C609       C2248   1.484       .  S
Zr610       O611   2.437       .  S
Zr610       O612   2.434       .  S
Zr610       O618   2.365       .  S
Zr610       O619   2.373       .  S
Zr610       O622   2.374       .  S
Zr610       O620   2.378       .  S
O611        H631   0.990       .  S
O611        H636   0.990       .  S
O612        H632   0.990       .  S
Zr613       O614   2.431       .  S
Zr613       O615   2.434       .  S
Zr613       O619   2.368       .  S
Zr613       O618   2.372       .  S
Zr613       O623   2.375       .  S
Zr613       O621   2.370       .  S
O614        H630   0.990       .  S
O615        H629   0.990       .  S
O615        H639   0.990       .  S
Zr616       O619   2.379       .  S
Zr616       O621   2.390       .  S
Zr616       O622   2.393       .  S
Zr617       O618   2.391       .  S
Zr617       O620   2.396       .  S
Zr617       O623   2.395       .  S
O618        H626   0.965       .  S
O621        H625   0.966       .  S
O622        H627   0.966       .  S
C640        C641   1.410       .  A
C640        C645   1.406       .  A
C640       C1840   1.492       .  S
C641        C642   1.405       .  A
C641        H646   1.084       .  S
C642        C643   1.401       .  A
C642       C2188   1.476       .  S
C643        C644   1.398       .  A
C643        H647   1.084       .  S
C644        C645   1.402       .  A
C644       C1813   1.471       .  S
C645        H648   1.083       .  S
C649        C650   1.396       .  A
C649        C654   1.403       .  A
C649       C1825   1.480       .  S
C650        C651   1.399       .  A
C650        H655   1.084       .  S
C651        C652   1.411       .  A
C651       C1801   1.489       .  S
C652        C653   1.412       .  A
C652        H656   1.083       .  S
C653        C654   1.406       .  A
C653       C1864   1.484       .  S
C654        H657   1.084       .  S
C658        C659   1.400       .  A
C658        C663   1.404       .  A
C658       C1789   1.475       .  S
C659        C660   1.401       .  A
C659        H664   1.085       .  S
C660        C661   1.400       .  A
C660       C1948   1.470       .  S
C661        C662   1.403       .  A
C661        H665   1.084       .  S
C662        C663   1.406       .  A
C662       C1777   1.475       .  S
C663        H666   1.084       .  S
C667        C668   1.411       .  A
C667        C672   1.411       .  A
C667       C1765   1.492       .  S
C668        C669   1.416       .  A
C668       C2764   1.485       .  S
C669        C670   1.419       .  A
C669       C1993   1.491       .  S
C670        C671   1.414       .  A
C670       C1780   1.486       .  S
C671        C672   1.411       .  A
C671       C1741   1.497       .  S
C672       C1753   1.471       .  S
C673        C674   1.395       .  A
C673        C678   1.395       .  A
C673       C1729   1.459       .  S
C674        C675   1.399       .  A
C674        H679   1.084       .  S
C675        C676   1.403       .  A
C675       C1756   1.461       .  S
C676        C677   1.403       .  A
C676        H680   1.084       .  S
C677        C678   1.398       .  A
C677       C1717   1.474       .  S
C678        H681   1.085       .  S
O682       Zr694   2.431   1_565  S
O682        C684   1.285       .  A
O683       Zr720   2.427       .  S
O683        C684   1.286   1_545  A
C684       C1816   1.465       .  S
O685       Zr697   2.429   1_565  S
O685        C687   1.283   1_565  A
O686       Zr721   2.421       .  S
O686        C687   1.285       .  A
C687       C1912   1.464   1_545  S
O688       Zr697   2.415   1_565  S
O688        C690   1.283       .  A
O689       Zr720   2.444       .  S
O689        C690   1.290   1_545  A
C690       C2716   1.488       .  S
O691       Zr694   2.461   1_565  S
O691        C693   1.290       .  A
O692       Zr721   2.413       .  S
O692        C693   1.283   1_545  A
C693       C1804   1.469       .  S
Zr694       O695   2.434   1_545  S
Zr694       O696   2.433       .  S
Zr694       O700   2.373       .  S
Zr694       O701   2.366       .  S
Zr694       O724   2.368       .  S
Zr694       O726   2.376       .  S
O695        H738   0.990       .  S
O696        H737   0.990       .  S
O696        H741   0.990       .  S
Zr697       O698   2.439   1_545  S
Zr697       O699   2.434       .  S
Zr697       O701   2.367       .  S
Zr697       O700   2.364       .  S
Zr697       O725   2.369       .  S
Zr697       O727   2.365       .  S
O698        H739   0.990       .  S
O698        H742   0.990       .  S
O699        H732   0.990       .  S
O700       Zr720   2.373       .  S
O701       Zr721   2.376       .  S
O701        H728   0.964   1_545  S
O702       Zr714   2.470       .  S
O702        C704   1.294       .  A
O703       Zr721   2.421       .  S
O703        C704   1.286       .  A
C704       C1681   1.489       .  S
O705       Zr717   2.424       .  S
O705        C707   1.285       .  A
O706       Zr720   2.434       .  S
O706        C707   1.289       .  A
C707       C1705   1.476       .  S
O708       Zr717   2.456       .  S
O708        C710   1.290       .  A
O709       Zr721   2.383       .  S
O709        C710   1.279       .  A
C710       C1732   1.475       .  S
O711       Zr714   2.457       .  S
O711        C713   1.290       .  A
O712       Zr720   2.421       .  S
O712        C713   1.285       .  A
C713       C1693   1.475       .  S
Zr714       O715   2.435       .  S
Zr714       O716   2.434       .  S
Zr714       O722   2.372       .  S
Zr714       O723   2.374       .  S
Zr714       O726   2.378       .  S
Zr714       O724   2.381       .  S
O715        H735   0.990       .  S
O715        H740   0.990       .  S
O716        H736   0.990       .  S
Zr717       O718   2.434       .  S
Zr717       O719   2.434       .  S
Zr717       O723   2.375       .  S
Zr717       O722   2.354       .  S
Zr717       O727   2.371       .  S
Zr717       O725   2.381       .  S
O718        H734   0.990       .  S
O719        H733   0.990       .  S
O719        H743   0.990       .  S
Zr720       O723   2.382       .  S
Zr720       O725   2.392       .  S
Zr720       O726   2.400       .  S
Zr721       O722   2.384       .  S
Zr721       O724   2.386       .  S
Zr721       O727   2.384       .  S
O722        H730   0.964       .  S
O725        H729   0.966       .  S
O726        H731   0.966       .  S
O744       Zr756   2.407       .  S
O744        C746   1.280       .  A
O745       Zr782   2.435       .  S
O745        C746   1.289       .  A
C746       C2776   1.482       .  S
O747       Zr759   2.446       .  S
O747        C749   1.288       .  A
O748       Zr783   2.437       .  S
O748        C749   1.288       .  A
C749       C1609   1.476   1_554  S
O750       Zr759   2.449       .  S
O750        C752   1.288       .  A
O751       Zr782   2.431       .  S
O751        C752   1.286       .  A
C752       C1621   1.475       .  S
O753       Zr756   2.424       .  S
O753        C755   1.284       .  A
O754       Zr783   2.431       .  S
O754        C755   1.288       .  A
C755       C1669   1.479       .  S
Zr756       O757   2.434   1_554  S
Zr756       O758   2.434       .  S
Zr756       O762   2.369       .  S
Zr756       O763   2.360       .  S
Zr756       O786   2.363       .  S
Zr756       O788   2.365       .  S
O757        H800   0.990       .  S
O758        H799   0.990       .  S
O758        H803   0.990       .  S
Zr759       O760   2.437   1_554  S
Zr759       O761   2.434       .  S
Zr759       O763   2.371       .  S
Zr759       O762   2.365       .  S
Zr759       O787   2.369       .  S
Zr759       O789   2.376       .  S
O760        H801   0.990       .  S
O760        H804   0.990       .  S
O761        H794   0.990       .  S
O762       Zr782   2.371       .  S
O763       Zr783   2.384       .  S
O763        H790   0.964       .  S
O764       Zr776   2.443       .  S
O764        C766   1.288       .  A
O765       Zr783   2.439       .  S
O765        C766   1.291       .  A
C766       C1792   1.494       .  S
O767       Zr779   2.438       .  S
O767        C769   1.289       .  A
O768       Zr782   2.425       .  S
O768        C769   1.286       .  A
C769       C1648   1.485       .  S
O770       Zr779   2.462       .  S
O770        C772   1.291       .  A
O771       Zr783   2.414       .  S
O771        C772   1.283       .  A
C772       C1657   1.468       .  S
O773       Zr776   2.444       .  S
O773        C775   1.289       .  A
O774       Zr782   2.419       .  S
O774        C775   1.286       .  A
C775       C1633   1.490       .  S
Zr776       O777   2.437       .  S
Zr776       O778   2.434       .  S
Zr776       O784   2.368       .  S
Zr776       O785   2.367       .  S
Zr776       O788   2.374       .  S
Zr776       O786   2.382       .  S
O777        H797   0.990       .  S
O777        H802   0.990       .  S
O778        H798   0.990       .  S
Zr779       O780   2.434       .  S
Zr779       O781   2.433       .  S
Zr779       O785   2.371       .  S
Zr779       O784   2.362       .  S
Zr779       O789   2.372       .  S
Zr779       O787   2.380       .  S
O780        H796   0.990       .  S
O781        H795   0.990       .  S
O781        H805   0.990       .  S
Zr782       O785   2.381       .  S
Zr782       O787   2.395       .  S
Zr782       O788   2.393       .  S
Zr783       O784   2.389       .  S
Zr783       O786   2.391       .  S
Zr783       O789   2.394       .  S
O784        H792   0.964       .  S
O787        H791   0.966       .  S
O788        H793   0.966       .  S
C806        C807   1.408       .  A
C806        C811   1.403       .  A
C806       C1597   1.477       .  S
C807        C808   1.412       .  A
C807        H812   1.083       .  S
C808        C809   1.403       .  A
C808       C1696   1.495       .  S
C809        C810   1.399       .  A
C809        H813   1.083       .  S
C810        C811   1.399       .  A
C810       C1645   1.474       .  S
C811        H814   1.084       .  S
C815        C816   1.404       .  A
C815        C820   1.410       .  A
C815       C1585   1.494       .  S
C816        C817   1.403       .  A
C816        H821   1.084       .  S
C817        C818   1.410       .  A
C817       C1624   1.495       .  S
C818        C819   1.411       .  A
C818        H822   1.083       .  S
C819        C820   1.411       .  A
C819       C1573   1.494       .  S
C820        H823   1.083       .  S
C824        C825   1.407       .  A
C824        C829   1.396       .  A
C824       C1612   1.476       .  S
C825        C826   1.420       .  A
C825        H830   1.079       .  S
C826        C827   1.424       .  A
C826       C1549   1.523       .  S
C827        C828   1.406       .  A
C827        H831   1.078       .  S
C828        C829   1.392       .  A
C828       C1561   1.484       .  S
C829        H832   1.085       .  S
O833       Zr845   2.453       .  S
O833        C835   1.290   1_545  A
O834       Zr871   2.402       .  S
O834        C835   1.280       .  A
C835       C2860   1.464       .  S
O836       Zr848   2.452       .  S
O836        C838   1.288       .  A
O837       Zr872   2.433       .  S
O837        C838   1.288       .  A
C838       C1564   1.493       .  S
O839       Zr848   2.444   1_565  S
O839        C841   1.287       .  A
O840       Zr871   2.399       .  S
O840        C841   1.282       .  A
C841       C2236   1.485       .  S
O842       Zr845   2.445       .  S
O842        C844   1.288       .  A
O843       Zr872   2.416       .  S
O843        C844   1.283       .  A
C844       C1528   1.464       .  S
Zr845       O846   2.433       .  S
Zr845       O847   2.435       .  S
Zr845       O851   2.367       .  S
Zr845       O852   2.375       .  S
Zr845       O875   2.370       .  S
Zr845       O877   2.370       .  S
O846        H889   0.990       .  S
O847        H888   0.990       .  S
O847        H892   0.990       .  S
Zr848       O849   2.438       .  S
Zr848       O850   2.434       .  S
Zr848       O852   2.372       .  S
Zr848       O851   2.371       .  S
Zr848       O876   2.379       .  S
Zr848       O878   2.381       .  S
O849        H890   0.990       .  S
O849        H893   0.990       .  S
O850        H883   0.990       .  S
O851       Zr871   2.365   1_545  S
O852       Zr872   2.380       .  S
O852        H879   0.965       .  S
O853       Zr865   2.451       .  S
O853        C855   1.289       .  A
O854       Zr872   2.401       .  S
O854        C855   1.281       .  A
C855       C1537   1.458       .  S
O856       Zr868   2.461   1_565  S
O856        C858   1.291       .  A
O857       Zr871   2.398       .  S
O857        C858   1.282       .  A
C858       C2260   1.481       .  S
O859       Zr868   2.462       .  S
O859        C861   1.291       .  A
O860       Zr872   2.425       .  S
O860        C861   1.287       .  A
C861       C1588   1.482       .  S
O862       Zr865   2.467       .  S
O862        C864   1.293   1_545  A
O863       Zr871   2.393       .  S
O863        C864   1.280       .  A
C864       C2416   1.483       .  S
Zr865       O866   2.436       .  S
Zr865       O867   2.434       .  S
Zr865       O873   2.374       .  S
Zr865       O874   2.363       .  S
Zr865       O877   2.367       .  S
Zr865       O875   2.378       .  S
O866        H886   0.990       .  S
O866        H891   0.990       .  S
O867        H887   0.990       .  S
Zr868       O869   2.434       .  S
Zr868       O870   2.433       .  S
Zr868       O874   2.369       .  S
Zr868       O873   2.374       .  S
Zr868       O878   2.386       .  S
Zr868       O876   2.383       .  S
O869        H885   0.990       .  S
O870        H884   0.990       .  S
O870        H894   0.990       .  S
Zr871       O874   2.370   1_565  S
Zr871       O876   2.383   1_565  S
Zr871       O877   2.380   1_565  S
Zr872       O873   2.390       .  S
Zr872       O875   2.391       .  S
Zr872       O878   2.382       .  S
O873        H881   0.965       .  S
O876        H880   0.966       .  S
O877        H882   0.966       .  S
C895        C896   1.402       .  A
C895        C900   1.391       .  A
C895       C1672   1.473       .  S
C896        C897   1.416       .  A
C896        H901   1.080       .  S
C897        C898   1.415       .  A
C897       C1513   1.502       .  S
C898        C899   1.400       .  A
C898        H902   1.081       .  S
C899        C900   1.393       .  A
C899       C1960   1.469       .  S
C900        H903   1.085       .  S
C904        C905   1.414       .  A
C904        C909   1.411       .  A
C904       C1501   1.494       .  S
C905        C906   1.408       .  A
C905        H910   1.083       .  S
C906        C907   1.396       .  A
C906       C2308   1.480       .  S
C907        C908   1.398       .  A
C907        H911   1.086       .  S
C908        C909   1.403       .  A
C908       C1489   1.477       .  S
C909        H912   1.084       .  S
C913        C914   1.433       .  A
C913        C918   1.422       .  A
C913       C1504   1.509       .  S
C914        C915   1.446       .  A
C914       C2608   1.495       .  S
C915        C916   1.433       .  A
C915       C1516   1.541       .  S
C916        C917   1.412       .  A
C916       C1552   1.528       .  S
C917        C918   1.420       .  A
C917       C1480   1.530       .  S
C918       C1465   1.533       .  S
C919        C920   1.407       .  A
C919        C924   1.393       .  A
C919       C1525   1.478       .  S
C920        C921   1.424       .  A
C920        H925   1.080       .  S
C921        C922   1.419       .  A
C921       C1477   1.522       .  S
C922        C923   1.400       .  A
C922        H926   1.073       .  S
C923        C924   1.387       .  A
C923       C1456   1.471       .  S
C924        H927   1.085       .  S
O928       Zr940   2.443   1_565  S
O928        C930   1.288       .  A
O929       Zr966   2.404       .  S
O929        C930   1.283   1_545  A
C930       C2848   1.475       .  S
O931       Zr943   2.467   1_565  S
O931        C933   1.291       .  A
O932       Zr967   2.401       .  S
O932        C933   1.280   1_545  A
C933       C2680   1.467       .  S
O934       Zr943   2.416   1_565  S
O934        C936   1.284       .  A
O935       Zr966   2.447       .  S
O935        C936   1.289   1_545  A
C936       C2641   1.490       .  S
O937       Zr940   2.462   1_565  S
O937        C939   1.291       .  A
O938       Zr967   2.391       .  S
O938        C939   1.280   1_545  A
C939       C1900   1.486       .  S
Zr940       O941   2.434   1_545  S
Zr940       O942   2.434       .  S
Zr940       O946   2.374       .  S
Zr940       O947   2.367       .  S
Zr940       O970   2.375       .  S
Zr940       O972   2.378       .  S
O941        H984   0.990       .  S
O942        H983   0.990       .  S
O942        H987   0.990       .  S
Zr943       O944   2.436   1_545  S
Zr943       O945   2.434       .  S
Zr943       O947   2.351       .  S
Zr943       O946   2.377       .  S
Zr943       O971   2.376       .  S
Zr943       O973   2.364       .  S
O944        H985   0.990       .  S
O944        H988   0.990       .  S
O945        H978   0.990       .  S
O946       Zr966   2.384       .  S
O947       Zr967   2.373       .  S
O947        H974   0.964   1_545  S
O948       Zr960   2.456       .  S
O948        C950   1.289       .  A
O949       Zr967   2.394       .  S
O949        C950   1.281       .  A
C950       C1720   1.474       .  S
O951       Zr963   2.445       .  S
O951        C953   1.288       .  A
O952       Zr966   2.411       .  S
O952        C953   1.283       .  A
C953       C1429   1.462       .  S
O954       Zr963   2.457       .  S
O954        C956   1.291       .  A
O955       Zr967   2.400       .  S
O955        C956   1.280       .  A
C956       C1441   1.462       .  S
O957       Zr960   2.414       .  S
O957        C959   1.283       .  A
O958       Zr966   2.447       .  S
O958        C959   1.290       .  A
C959       C1453   1.490       .  S
Zr960       O961   2.438       .  S
Zr960       O962   2.434       .  S
Zr960       O968   2.357       .  S
Zr960       O969   2.381       .  S
Zr960       O972   2.381       .  S
Zr960       O970   2.371       .  S
O961        H981   0.990       .  S
O961        H986   0.990       .  S
O962        H982   0.990       .  S
Zr963       O964   2.434       .  S
Zr963       O965   2.434       .  S
Zr963       O969   2.376       .  S
Zr963       O968   2.364       .  S
Zr963       O973   2.375       .  S
Zr963       O971   2.370       .  S
O964        H980   0.990       .  S
O965        H979   0.990       .  S
O965        H989   0.990       .  S
Zr966       O969   2.379       .  S
Zr966       O971   2.394       .  S
Zr966       O972   2.395       .  S
Zr967       O968   2.375       .  S
Zr967       O970   2.381       .  S
Zr967       O973   2.377       .  S
O968        H976   0.964       .  S
O971        H975   0.966       .  S
O972        H977   0.966       .  S
C990        C991   1.407       .  A
C990        C995   1.407       .  A
C990       C1768   1.475       .  S
C991        C992   1.404       .  A
C991        H996   1.084       .  S
C992        C993   1.394       .  A
C992       C1444   1.467       .  S
C993        C994   1.392       .  A
C993        H997   1.086       .  S
C994        C995   1.403       .  A
C994       C1417   1.468       .  S
C995        H998   1.084       .  S
C999       C1000   1.413       .  A
C999       C1004   1.421       .  A
C999       C1468   1.511       .  S
C1000      C1001   1.401       .  A
C1000      H1005   1.077       .  S
C1001      C1002   1.394       .  A
C1001      C1432   1.476       .  S
C1002      C1003   1.394       .  A
C1002      H1006   1.084       .  S
C1003      C1004   1.408       .  A
C1003      C1405   1.480       .  S
C1004      H1007   1.082       .  S
C1008      C1009   1.402       .  A
C1008      C1013   1.404       .  A
C1008      C1384   1.471       .  S
C1009      C1010   1.403       .  A
C1009      H1014   1.083       .  S
C1010      C1011   1.400       .  A
C1010      C1540   1.484       .  S
C1011      C1012   1.399       .  A
C1011      H1015   1.084       .  S
C1012      C1013   1.406       .  A
C1012      C1393   1.484       .  S
C1013      H1016   1.083       .  S
C1017      C1018   1.428       .  A
C1017      C1022   1.407       .  A
C1017      C2800   1.479       .  S
C1018      C1019   1.443       .  A
C1018      C2284   1.499       .  S
C1019      C1020   1.440       .  A
C1019      C1369   1.557       .  S
C1020      C1021   1.418       .  A
C1020      C1357   1.497       .  S
C1021      C1022   1.404       .  A
C1021      C1381   1.480       .  S
C1022      C1576   1.509       .  S
O1023     Zr1035   2.443       .  S
O1023      C1025   1.288   1_545  A
O1024     Zr1061   2.403       .  S
O1024      C1025   1.282       .  A
C1025      C2572   1.483       .  S
O1026     Zr1038   2.449       .  S
O1026      C1028   1.287       .  A
O1027     Zr1062   2.417       .  S
O1027      C1028   1.282       .  A
C1028      C1345   1.466       .  S
O1029     Zr1038   2.426       .  S
O1029      C1031   1.285   1_545  A
O1030     Zr1061   2.434       .  S
O1030      C1031   1.286       .  A
C1031      C2704   1.495       .  S
O1032     Zr1035   2.451       .  S
O1032      C1034   1.290       .  A
O1033     Zr1062   2.407       .  S
O1033      C1034   1.283       .  A
C1034      C1321   1.483       .  S
Zr1035     O1036   2.433       .  S
Zr1035     O1037   2.434       .  S
Zr1035     O1041   2.370       .  S
Zr1035     O1042   2.364       .  S
Zr1035     O1065   2.372       .  S
Zr1035     O1067   2.369       .  S
O1036      H1079   0.990       .  S
O1037      H1078   0.990       .  S
O1037      H1082   0.990       .  S
Zr1038     O1039   2.437       .  S
Zr1038     O1040   2.434       .  S
Zr1038     O1042   2.362       .  S
Zr1038     O1041   2.371       .  S
Zr1038     O1066   2.372       .  S
Zr1038     O1068   2.367       .  S
O1039      H1080   0.990       .  S
O1039      H1083   0.990       .  S
O1040      H1073   0.990       .  S
O1041     Zr1061   2.370   1_545  S
O1042     Zr1062   2.373       .  S
O1042      H1069   0.963       .  S
O1043     Zr1055   2.452       .  S
O1043      C1045   1.290       .  A
O1044     Zr1062   2.400       .  S
O1044      C1045   1.282       .  A
C1045      C1333   1.486       .  S
O1046     Zr1058   2.459       .  S
O1046      C1048   1.292   1_545  A
O1047     Zr1061   2.400       .  S
O1047      C1048   1.281       .  A
C1048      C2401   1.475       .  S
O1049     Zr1058   2.464       .  S
O1049      C1051   1.291       .  A
O1050     Zr1062   2.396       .  S
O1050      C1051   1.280       .  A
C1051      C1396   1.461       .  S
O1052     Zr1055   2.433   1_565  S
O1052      C1054   1.286       .  A
O1053     Zr1061   2.418       .  S
O1053      C1054   1.286       .  A
C1054      C2536   1.469       .  S
Zr1055     O1056   2.437       .  S
Zr1055     O1057   2.434       .  S
Zr1055     O1063   2.362       .  S
Zr1055     O1064   2.370       .  S
Zr1055     O1067   2.382       .  S
Zr1055     O1065   2.377       .  S
O1056      H1076   0.990       .  S
O1056      H1081   0.990       .  S
O1057      H1077   0.990       .  S
Zr1058     O1059   2.434       .  S
Zr1058     O1060   2.434       .  S
Zr1058     O1064   2.369       .  S
Zr1058     O1063   2.373       .  S
Zr1058     O1068   2.379       .  S
Zr1058     O1066   2.377       .  S
O1059      H1075   0.990       .  S
O1060      H1074   0.990       .  S
O1060      H1084   0.990       .  S
Zr1061     O1064   2.379   1_565  S
Zr1061     O1066   2.393   1_565  S
Zr1061     O1067   2.390   1_565  S
Zr1062     O1063   2.382       .  S
Zr1062     O1065   2.382       .  S
Zr1062     O1068   2.384       .  S
O1063      H1071   0.965       .  S
O1066      H1070   0.966       .  S
O1067      H1072   0.966       .  S
O1085     Zr1097   2.437   1_655  S
O1085      C1087   1.287       .  A
O1086     Zr1123   2.423       .  S
O1086      C1087   1.285       .  A
C1087      C2740   1.465       .  S
O1088     Zr1100   2.460       .  S
O1088      C1090   1.289       .  A
O1089     Zr1124   2.401       .  S
O1089      C1090   1.282       .  A
C1090      C1309   1.478       .  S
O1091     Zr1100   2.422   1_655  S
O1091      C1093   1.283       .  A
O1092     Zr1123   2.436       .  S
O1092      C1093   1.289       .  A
C1093      C1420   1.487       .  S
O1094     Zr1097   2.454       .  S
O1094      C1096   1.291       .  A
O1095     Zr1124   2.409       .  S
O1095      C1096   1.282       .  A
C1096      C1288   1.467       .  S
Zr1097     O1098   2.434       .  S
Zr1097     O1099   2.434       .  S
Zr1097     O1103   2.372   1_455  S
Zr1097     O1104   2.363       .  S
Zr1097     O1127   2.369       .  S
Zr1097     O1129   2.371   1_455  S
O1098      H1141   0.990       .  S
O1099      H1140   0.990       .  S
O1099      H1144   0.990       .  S
Zr1100     O1101   2.438       .  S
Zr1100     O1102   2.434       .  S
Zr1100     O1104   2.359       .  S
Zr1100     O1103   2.376   1_455  S
Zr1100     O1128   2.381       .  S
Zr1100     O1130   2.369       .  S
O1101      H1142   0.990       .  S
O1101      H1145   0.990       .  S
O1102      H1135   0.990       .  S
O1103     Zr1123   2.378       .  S
O1104     Zr1124   2.377       .  S
O1104      H1131   0.963       .  S
O1105     Zr1117   2.450       .  S
O1105      C1107   1.289       .  A
O1106     Zr1124   2.399       .  S
O1106      C1107   1.282       .  A
C1107      C1276   1.484       .  S
O1108     Zr1120   2.439   1_655  S
O1108      C1110   1.288       .  A
O1109     Zr1123   2.433       .  S
O1109      C1110   1.288       .  A
C1110      C1408   1.489       .  S
O1111     Zr1120   2.461       .  S
O1111      C1113   1.291       .  A
O1112     Zr1124   2.405       .  S
O1112      C1113   1.284       .  A
C1113      C1297   1.490       .  S
O1114     Zr1117   2.427   1_655  S
O1114      C1116   1.287       .  A
O1115     Zr1123   2.431       .  S
O1115      C1116   1.286       .  A
C1116      C1492   1.486       .  S
Zr1117     O1118   2.436       .  S
Zr1117     O1119   2.434       .  S
Zr1117     O1125   2.361       .  S
Zr1117     O1126   2.370   1_455  S
Zr1117     O1129   2.370   1_455  S
Zr1117     O1127   2.368       .  S
O1118      H1138   0.990       .  S
O1118      H1143   0.990       .  S
O1119      H1139   0.990       .  S
Zr1120     O1121   2.434       .  S
Zr1120     O1122   2.433       .  S
Zr1120     O1126   2.373   1_455  S
Zr1120     O1125   2.365       .  S
Zr1120     O1130   2.376       .  S
Zr1120     O1128   2.383       .  S
O1121      H1137   0.990       .  S
O1122      H1136   0.990       .  S
O1122      H1146   0.990       .  S
Zr1123     O1126   2.379       .  S
Zr1123     O1128   2.401   1_655  S
Zr1123     O1129   2.394       .  S
Zr1124     O1125   2.377       .  S
Zr1124     O1127   2.383       .  S
Zr1124     O1130   2.385       .  S
O1125      H1133   0.964       .  S
O1128      H1132   0.966   1_455  S
O1129      H1134   0.966       .  S
C1147      C1148   1.403       .  A
C1147      C1152   1.394       .  A
C1147      C1324   1.472       .  S
C1148      C1149   1.407       .  A
C1148      H1153   1.084       .  S
C1149      C1150   1.406       .  A
C1149      C1261   1.474       .  S
C1150      C1151   1.404       .  A
C1150      H1154   1.084       .  S
C1151      C1152   1.396       .  A
C1151      C1312   1.473       .  S
C1152      H1155   1.085       .  S
C1156      C1157   1.420       .  A
C1156      C1161   1.416       .  A
C1156      C1372   1.504       .  S
C1157      C1158   1.405       .  A
C1157      H1162   1.080       .  S
C1158      C1159   1.388       .  A
C1158      C2320   1.482       .  S
C1159      C1160   1.391       .  A
C1159      H1163   1.085       .  S
C1160      C1161   1.404       .  A
C1160      C1273   1.475       .  S
C1161      H1164   1.082       .  S
C1165      C1166   1.405       .  A
C1165      C1170   1.397       .  A
C1165      C1300   1.472       .  S
C1166      C1167   1.408       .  A
C1166      H1171   1.084       .  S
C1167      C1168   1.403       .  A
C1167      C1360   1.479       .  S
C1168      C1169   1.399       .  A
C1168      H1172   1.084       .  S
C1169      C1170   1.396       .  A
C1169      C1336   1.467       .  S
C1170      H1173   1.085       .  S
C1174      C1175   1.409       .  A
C1174      C1179   1.414       .  A
C1174      C1744   1.487       .  S
C1175      C1176   1.405       .  A
C1175      H1180   1.084       .  S
C1176      C1177   1.395       .  A
C1176      C1660   1.479       .  S
C1177      C1178   1.397       .  A
C1177      H1181   1.085       .  S
C1178      C1179   1.409       .  A
C1178      C1684   1.479       .  S
C1179      H1182   1.083       .  S
C1183      C1184   1.400       .  A
C1183      C1188   1.391       .  A
C1183      C2104   1.479       .  S
C1184      C1185   1.417       .  A
C1184      H1189   1.083       .  S
C1185      C1186   1.420       .  A
C1185      C2164   1.508       .  S
C1186      C1187   1.410       .  A
C1186      H1190   1.075       .  S
C1187      C1188   1.401       .  A
C1187      C2080   1.502       .  S
C1188      H1191   1.082       .  S
C1192      C1193   1.400       .  A
C1192      C1197   1.404       .  A
C1192      C2128   1.472       .  S
C1193      C1194   1.398       .  A
C1193      H1198   1.085       .  S
C1194      C1195   1.400       .  A
C1194      C1636   1.470       .  S
C1195      C1196   1.403       .  A
C1195      H1199   1.084       .  S
C1196      C1197   1.405       .  A
C1196      C1249   1.475       .  S
C1197      H1200   1.084       .  S
C1201      C1202   1.397       .  A
C1201      C1206   1.405       .  A
C1201      C1348   1.472       .  S
C1202      C1203   1.397       .  A
C1202      H1207   1.085       .  S
C1203      C1204   1.402       .  A
C1203      C1708   1.474       .  S
C1204      C1205   1.405       .  A
C1204      H1208   1.084       .  S
C1205      C1206   1.408       .  A
C1205      C1237   1.479       .  S
C1206      H1209   1.084       .  S
C1210      C1211   1.396       .  A
C1210      C1215   1.404       .  A
C1210      C1285   1.469       .  S
C1211      C1212   1.395       .  A
C1211      H1216   1.085       .  S
C1212      C1213   1.399       .  A
C1212      C2053   1.470       .  S
C1213      C1214   1.404       .  A
C1213      H1217   1.084       .  S
C1214      C1215   1.408       .  A
C1214      C1225   1.476       .  S
C1215      H1218   1.084       .  S
C1219      C1220   1.419       .  A
C1219      C1224   1.414       .  A
C1219      C1252   1.486       .  S
C1220      C1221   1.418       .  A
C1220      C2020   1.496       .  S
C1221      C1222   1.416       .  A
C1221      C1228   1.488       .  S
C1222      C1223   1.411       .  A
C1222      C1264   1.489       .  S
C1223      C1224   1.411       .  A
C1223      C1240   1.487       .  S
C1224      C1600   1.489       .  S
C1225      C1226   1.400       .  A
C1225      C1230   1.408       .  A
C1226      C1227   1.400       .  A
C1226      H1231   1.084       .  S
C1227      C1228   1.408       .  A
C1227      O1232   1.373       .  S
C1228      C1229   1.404       .  A
C1229      C1230   1.401       .  A
C1229      H1233   1.083       .  S
C1230      O1234   1.372       .  S
O1232      H1236   0.992       .  S
O1234      H1235   0.992       .  S
C1237      C1238   1.406       .  A
C1237      C1242   1.405       .  A
C1238      C1239   1.404       .  A
C1238      H1243   1.083       .  S
C1239      C1240   1.406       .  A
C1239      O1244   1.371       .  S
C1240      C1241   1.404       .  A
C1241      C1242   1.397       .  A
C1241      H1245   1.084       .  S
C1242      O1246   1.372       .  S
O1244      H1248   0.991       .  S
O1246      H1247   0.992       .  S
C1249      C1250   1.405       .  A
C1249      C1254   1.404       .  A
C1250      C1251   1.403       .  A
C1250      H1255   1.083       .  S
C1251      C1252   1.408       .  A
C1251      O1256   1.371       .  S
C1252      C1253   1.404       .  A
C1253      C1254   1.396       .  A
C1253      H1257   1.084       .  S
C1254      O1258   1.372       .  S
O1256      H1260   0.991       .  S
O1258      H1259   0.992       .  S
C1261      C1262   1.403       .  A
C1261      C1266   1.405       .  A
C1262      C1263   1.405       .  A
C1262      H1267   1.083       .  S
C1263      C1264   1.408       .  A
C1263      O1268   1.372       .  S
C1264      C1265   1.403       .  A
C1265      C1266   1.397       .  A
C1265      H1269   1.083       .  S
C1266      O1270   1.372       .  S
O1268      H1272   0.992       .  S
O1270      H1271   0.992       .  S
C1273      C1274   1.404       .  A
C1273      C1278   1.402       .  A
C1274      C1275   1.389       .  A
C1274      H1279   1.085       .  S
C1275      C1276   1.411       .  A
C1275      O1280   1.372       .  S
C1276      C1277   1.414       .  A
C1277      C1278   1.402       .  A
C1277      H1281   1.083       .  S
C1278      O1282   1.371       .  S
O1280      H1284   0.992       .  S
O1282      H1283   0.991       .  S
C1285      C1286   1.400       .  A
C1285      C1290   1.409       .  A
C1286      C1287   1.395       .  A
C1286      H1291   1.084       .  S
C1287      C1288   1.407       .  A
C1287      O1292   1.372       .  S
C1288      C1289   1.402       .  A
C1289      C1290   1.402       .  A
C1289      H1293   1.083       .  S
C1290      O1294   1.371       .  S
O1292      H1296   0.992       .  S
O1294      H1295   0.992       .  S
C1297      C1298   1.410       .  A
C1297      C1302   1.415       .  A
C1298      C1299   1.395       .  A
C1298      H1303   1.083       .  S
C1299      C1300   1.403       .  A
C1299      O1304   1.372       .  S
C1300      C1301   1.401       .  A
C1301      C1302   1.403       .  A
C1301      H1305   1.084       .  S
C1302      O1306   1.371       .  S
O1304      H1308   0.991       .  S
O1306      H1307   0.992       .  S
C1309      C1310   1.409       .  A
C1309      C1314   1.408       .  A
C1310      C1311   1.397       .  A
C1310      H1315   1.084       .  S
C1311      C1312   1.404       .  A
C1311      O1316   1.372       .  S
C1312      C1313   1.405       .  A
C1313      C1314   1.399       .  A
C1313      H1317   1.084       .  S
C1314      O1318   1.371       .  S
O1316      H1320   0.992       .  S
O1318      H1319   0.992       .  S
C1321      C1322   1.405       .  A
C1321      C1326   1.417       .  A
C1322      C1323   1.397       .  A
C1322      H1327   1.083       .  S
C1323      C1324   1.407       .  A
C1323      O1328   1.372       .  S
C1324      C1325   1.398       .  A
C1325      C1326   1.398       .  A
C1325      H1329   1.084       .  S
C1326      O1330   1.372       .  S
O1328      H1332   0.992       .  S
O1330      H1331   0.992       .  S
C1333      C1334   1.409       .  A
C1333      C1338   1.418       .  A
C1334      C1335   1.400       .  A
C1334      H1339   1.083       .  S
C1335      C1336   1.403       .  A
C1335      O1340   1.371       .  S
C1336      C1337   1.397       .  A
C1337      C1338   1.394       .  A
C1337      H1341   1.084       .  S
C1338      O1342   1.372       .  S
O1340      H1344   0.992       .  S
O1342      H1343   0.991       .  S
C1345      C1346   1.401       .  A
C1345      C1350   1.407       .  A
C1346      C1347   1.405       .  A
C1346      H1351   1.083       .  S
C1347      C1348   1.410       .  A
C1347      O1352   1.371       .  S
C1348      C1349   1.398       .  A
C1349      C1350   1.396       .  A
C1349      H1353   1.084       .  S
C1350      O1354   1.375       .  S
O1352      H1356   0.992       .  S
O1354      H1355   0.991       .  S
C1357      C1358   1.407       .  A
C1357      C1362   1.409       .  A
C1358      C1359   1.398       .  A
C1358      H1363   1.082       .  S
C1359      C1360   1.409       .  A
C1359      O1364   1.372       .  S
C1360      C1361   1.401       .  A
C1361      C1362   1.398       .  A
C1361      H1365   1.084       .  S
C1362      O1366   1.369       .  S
O1364      H1368   0.992       .  S
O1366      H1367   0.992       .  S
C1369      C1370   1.417       .  A
C1369      C1374   1.424       .  A
C1370      C1371   1.403       .  A
C1370      H1375   1.070       .  S
C1371      C1372   1.408       .  A
C1371      O1376   1.372       .  S
C1372      C1373   1.402       .  A
C1373      C1374   1.408       .  A
C1373      H1377   1.080       .  S
C1374      O1378   1.369       .  S
O1376      H1380   0.992       .  S
O1378      H1379   0.993       .  S
C1381      C1382   1.405       .  A
C1381      C1386   1.404       .  A
C1382      C1383   1.397       .  A
C1382      H1387   1.084       .  S
C1383      C1384   1.402       .  A
C1383      O1388   1.371       .  S
C1384      C1385   1.405       .  A
C1385      C1386   1.402       .  A
C1385      H1389   1.084       .  S
C1386      O1390   1.371       .  S
O1388      H1392   0.992       .  S
O1390      H1391   0.992       .  S
C1393      C1394   1.411       .  A
C1393      C1398   1.410       .  A
C1394      C1395   1.399       .  A
C1394      H1399   1.084       .  S
C1395      C1396   1.400       .  A
C1395      O1400   1.371       .  S
C1396      C1397   1.400       .  A
C1397      C1398   1.397       .  A
C1397      H1401   1.084       .  S
C1398      O1402   1.372       .  S
O1400      H1404   0.992       .  S
O1402      H1403   0.992       .  S
C1405      C1406   1.402       .  A
C1405      C1410   1.407       .  A
C1406      C1407   1.405       .  A
C1406      H1411   1.084       .  S
C1407      C1408   1.414       .  A
C1407      O1412   1.370       .  S
C1408      C1409   1.407       .  A
C1409      C1410   1.398       .  A
C1409      H1413   1.084       .  S
C1410      O1414   1.372       .  S
O1412      H1416   0.992       .  S
O1414      H1415   0.992       .  S
C1417      C1418   1.396       .  A
C1417      C1422   1.405       .  A
C1418      C1419   1.397       .  A
C1418      H1423   1.084       .  S
C1419      C1420   1.418       .  A
C1419      O1424   1.372       .  S
C1420      C1421   1.407       .  A
C1421      C1422   1.400       .  A
C1421      H1425   1.083       .  S
C1422      O1426   1.372       .  S
O1424      H1428   0.992       .  S
O1426      H1427   0.991       .  S
C1429      C1430   1.401       .  A
C1429      C1434   1.404       .  A
C1430      C1431   1.403       .  A
C1430      H1435   1.084       .  S
C1431      C1432   1.409       .  A
C1431      O1436   1.372       .  S
C1432      C1433   1.404       .  A
C1433      C1434   1.395       .  A
C1433      H1437   1.084       .  S
C1434      O1438   1.372       .  S
O1436      H1440   0.992       .  S
O1438      H1439   0.992       .  S
C1441      C1442   1.401       .  A
C1441      C1446   1.406       .  A
C1442      C1443   1.401       .  A
C1442      H1447   1.084       .  S
C1443      C1444   1.409       .  A
C1443      O1448   1.371       .  S
C1444      C1445   1.400       .  A
C1445      C1446   1.394       .  A
C1445      H1449   1.084       .  S
C1446      O1450   1.372       .  S
O1448      H1452   0.992       .  S
O1450      H1451   0.992       .  S
C1453      C1454   1.413       .  A
C1453      C1458   1.412       .  A
C1454      C1455   1.397       .  A
C1454      H1459   1.083       .  S
C1455      C1456   1.399       .  A
C1455      O1460   1.372       .  S
C1456      C1457   1.403       .  A
C1457      C1458   1.404       .  A
C1457      H1461   1.084       .  S
C1458      O1462   1.373       .  S
O1460      H1464   0.992       .  S
O1462      H1463   0.991       .  S
C1465      C1466   1.408       .  A
C1465      C1470   1.419       .  A
C1466      C1467   1.399       .  A
C1466      H1471   1.080       .  S
C1467      C1468   1.418       .  A
C1467      O1472   1.371       .  S
C1468      C1469   1.407       .  A
C1469      C1470   1.412       .  A
C1469      H1473   1.083       .  S
C1470      O1474   1.371       .  S
O1472      H1476   0.992       .  S
O1474      H1475   0.993       .  S
C1477      C1478   1.414       .  A
C1477      C1482   1.423       .  A
C1478      C1479   1.410       .  A
C1478      H1483   1.081       .  S
C1479      C1480   1.417       .  A
C1479      O1484   1.372       .  S
C1480      C1481   1.403       .  A
C1481      C1482   1.398       .  A
C1481      H1485   1.076       .  S
C1482      O1486   1.368       .  S
O1484      H1488   0.992       .  S
O1486      H1487   0.992       .  S
C1489      C1490   1.404       .  A
C1489      C1494   1.406       .  A
C1490      C1491   1.411       .  A
C1490      H1495   1.083       .  S
C1491      C1492   1.415       .  A
C1491      O1496   1.372       .  S
C1492      C1493   1.405       .  A
C1493      C1494   1.387       .  A
C1493      H1497   1.083       .  S
C1494      O1498   1.374       .  S
O1496      H1500   0.991       .  S
O1498      H1499   0.992       .  S
C1501      C1502   1.404       .  A
C1501      C1506   1.411       .  A
C1502      C1503   1.405       .  A
C1502      H1507   1.084       .  S
C1503      C1504   1.412       .  A
C1503      O1508   1.372       .  S
C1504      C1505   1.410       .  A
C1505      C1506   1.404       .  A
C1505      H1509   1.083       .  S
C1506      O1510   1.371       .  S
O1508      H1512   0.992       .  S
O1510      H1511   0.992       .  S
C1513      C1514   1.407       .  A
C1513      C1518   1.408       .  A
C1514      C1515   1.409       .  A
C1514      H1519   1.080       .  S
C1515      C1516   1.420       .  A
C1515      O1520   1.374       .  S
C1516      C1517   1.410       .  A
C1517      C1518   1.400       .  A
C1517      H1521   1.072       .  S
C1518      O1522   1.374       .  S
O1520      H1524   0.992       .  S
O1522      H1523   0.993       .  S
C1525      C1526   1.402       .  A
C1525      C1530   1.412       .  A
C1526      C1527   1.399       .  A
C1526      H1531   1.084       .  S
C1527      C1528   1.406       .  A
C1527      O1532   1.371       .  S
C1528      C1529   1.398       .  A
C1529      C1530   1.400       .  A
C1529      H1533   1.084       .  S
C1530      O1534   1.373       .  S
O1532      H1536   0.992       .  S
O1534      H1535   0.992       .  S
C1537      C1538   1.399       .  A
C1537      C1542   1.400       .  A
C1538      C1539   1.397       .  A
C1538      H1543   1.085       .  S
C1539      C1540   1.413       .  A
C1539      O1544   1.372       .  S
C1540      C1541   1.410       .  A
C1541      C1542   1.397       .  A
C1541      H1545   1.084       .  S
C1542      O1546   1.372       .  S
O1544      H1548   0.992       .  S
O1546      H1547   0.992       .  S
C1549      C1550   1.409       .  A
C1549      C1554   1.422       .  A
C1550      C1551   1.404       .  A
C1550      H1555   1.077       .  S
C1551      C1552   1.417       .  A
C1551      O1556   1.373       .  S
C1552      C1553   1.413       .  A
C1553      C1554   1.412       .  A
C1553      H1557   1.083       .  S
C1554      O1558   1.370       .  S
O1556      H1560   0.992       .  S
O1558      H1559   0.991       .  S
C1561      C1562   1.402       .  A
C1561      C1566   1.407       .  A
C1562      C1563   1.405       .  A
C1562      H1567   1.084       .  S
C1563      C1564   1.415       .  A
C1563      O1568   1.371       .  S
C1564      C1565   1.408       .  A
C1565      C1566   1.402       .  A
C1565      H1569   1.083       .  S
C1566      O1570   1.372       .  S
O1568      H1572   0.992       .  S
O1570      H1571   0.992       .  S
C1573      C1574   1.406       .  A
C1573      C1578   1.408       .  A
C1574      C1575   1.409       .  A
C1574      H1579   1.083       .  S
C1575      C1576   1.411       .  A
C1575      O1580   1.369       .  S
C1576      C1577   1.408       .  A
C1577      C1578   1.406       .  A
C1577      H1581   1.083       .  S
C1578      O1582   1.372       .  S
O1580      H1584   0.991       .  S
O1582      H1583   0.992       .  S
C1585      C1586   1.408       .  A
C1585      C1590   1.411       .  A
C1586      C1587   1.400       .  A
C1586      H1591   1.083       .  S
C1587      C1588   1.406       .  A
C1587      O1592   1.372       .  S
C1588      C1589   1.407       .  A
C1589      C1590   1.408       .  A
C1589      H1593   1.084       .  S
C1590      O1594   1.372       .  S
O1592      H1596   0.992       .  S
O1594      H1595   0.992       .  S
C1597      C1598   1.404       .  A
C1597      C1602   1.404       .  A
C1598      C1599   1.405       .  A
C1598      H1603   1.084       .  S
C1599      C1600   1.407       .  A
C1599      O1604   1.372       .  S
C1600      C1601   1.406       .  A
C1601      C1602   1.400       .  A
C1601      H1605   1.084       .  S
C1602      O1606   1.371       .  S
O1604      H1608   0.992       .  S
O1606      H1607   0.992       .  S
C1609      C1610   1.403   1_556  A
C1609      C1614   1.409       .  A
C1610      C1611   1.406   1_554  A
C1610      H1615   1.083       .  S
C1611      C1612   1.409       .  A
C1611      O1616   1.371       .  S
C1612      C1613   1.399       .  A
C1613      C1614   1.398       .  A
C1613      H1617   1.084       .  S
C1614      O1618   1.373       .  S
O1616      H1620   0.992       .  S
O1618      H1619   0.992       .  S
C1621      C1622   1.402   1_554  A
C1621      C1626   1.405       .  A
C1622      C1623   1.402       .  A
C1622      H1627   1.084       .  S
C1623      C1624   1.412       .  A
C1623      O1628   1.372       .  S
C1624      C1625   1.411       .  A
C1625      C1626   1.405   1_556  A
C1625      H1629   1.083       .  S
C1626      O1630   1.371       .  S
O1628      H1632   0.992       .  S
O1630      H1631   0.992       .  S
C1633      C1634   1.412       .  A
C1633      C1638   1.416       .  A
C1634      C1635   1.402       .  A
C1634      H1639   1.083       .  S
C1635      C1636   1.402       .  A
C1635      O1640   1.371       .  S
C1636      C1637   1.398       .  A
C1637      C1638   1.397       .  A
C1637      H1641   1.084       .  S
C1638      O1642   1.372       .  S
O1640      H1644   0.992       .  S
O1642      H1643   0.992       .  S
C1645      C1646   1.403       .  A
C1645      C1650   1.404       .  A
C1646      C1647   1.407       .  A
C1646      H1651   1.083       .  S
C1647      C1648   1.414       .  A
C1647      O1652   1.371       .  S
C1648      C1649   1.406       .  A
C1649      C1650   1.392       .  A
C1649      H1653   1.084       .  S
C1650      O1654   1.373       .  S
O1652      H1656   0.992       .  S
O1654      H1655   0.992       .  S
C1657      C1658   1.401       .  A
C1657      C1662   1.407       .  A
C1658      C1659   1.403       .  A
C1658      H1663   1.084       .  S
C1659      C1660   1.412       .  A
C1659      O1664   1.371       .  S
C1660      C1661   1.403       .  A
C1661      C1662   1.398       .  A
C1661      H1665   1.084       .  S
C1662      O1666   1.372       .  S
O1664      H1668   0.992       .  S
O1666      H1667   0.992       .  S
C1669      C1670   1.407   1_554  A
C1669      C1674   1.411   1_554  A
C1670      C1671   1.396       .  A
C1670      H1675   1.084       .  S
C1671      C1672   1.405       .  A
C1671      O1676   1.372       .  S
C1672      C1673   1.402       .  A
C1673      C1674   1.399       .  A
C1673      H1677   1.084       .  S
C1674      O1678   1.371   1_556  S
O1676      H1680   0.992       .  S
O1678      H1679   0.992       .  S
C1681      C1682   1.411       .  A
C1681      C1686   1.412       .  A
C1682      C1683   1.408       .  A
C1682      H1687   1.083       .  S
C1683      C1684   1.406       .  A
C1683      O1688   1.371       .  S
C1684      C1685   1.400       .  A
C1685      C1686   1.396       .  A
C1685      H1689   1.084       .  S
C1686      O1690   1.371       .  S
O1688      H1692   0.992       .  S
O1690      H1691   0.992       .  S
C1693      C1694   1.400       .  A
C1693      C1698   1.405       .  A
C1694      C1695   1.406       .  A
C1694      H1699   1.084       .  S
C1695      C1696   1.417       .  A
C1695      O1700   1.374       .  S
C1696      C1697   1.406       .  A
C1697      C1698   1.399       .  A
C1697      H1701   1.083       .  S
C1698      O1702   1.369       .  S
O1700      H1704   0.992       .  S
O1702      H1703   0.992       .  S
C1705      C1706   1.401       .  A
C1705      C1710   1.414       .  A
C1706      C1707   1.398       .  A
C1706      H1711   1.084       .  S
C1707      C1708   1.409       .  A
C1707      O1712   1.372       .  S
C1708      C1709   1.399       .  A
C1709      C1710   1.399       .  A
C1709      H1713   1.084       .  S
C1710      O1714   1.372       .  S
O1712      H1716   0.992       .  S
O1714      H1715   0.992       .  S
C1717      C1718   1.406       .  A
C1717      C1722   1.405       .  A
C1718      C1719   1.399       .  A
C1718      H1723   1.084       .  S
C1719      C1720   1.407       .  A
C1719      O1724   1.371       .  S
C1720      C1721   1.407       .  A
C1721      C1722   1.393       .  A
C1721      H1725   1.084       .  S
C1722      O1726   1.372       .  S
O1724      H1728   0.992       .  S
O1726      H1727   0.992       .  S
C1729      C1730   1.393       .  A
C1729      C1734   1.404       .  A
C1730      C1731   1.389       .  A
C1730      H1735   1.084       .  S
C1731      C1732   1.414       .  A
C1731      O1736   1.370       .  S
C1732      C1733   1.406       .  A
C1733      C1734   1.400       .  A
C1733      H1737   1.083       .  S
C1734      O1738   1.371       .  S
O1736      H1740   0.992       .  S
O1738      H1739   0.992       .  S
C1741      C1742   1.405       .  A
C1741      C1746   1.410       .  A
C1742      C1743   1.407       .  A
C1742      H1747   1.083       .  S
C1743      C1744   1.409       .  A
C1743      O1748   1.371       .  S
C1744      C1745   1.403       .  A
C1745      C1746   1.406       .  A
C1745      H1749   1.084       .  S
C1746      O1750   1.374       .  S
O1748      H1752   0.992       .  S
O1750      H1751   0.992       .  S
C1753      C1754   1.399       .  A
C1753      C1758   1.404       .  A
C1754      C1755   1.389       .  A
C1754      H1759   1.084       .  S
C1755      C1756   1.401       .  A
C1755      O1760   1.372       .  S
C1756      C1757   1.404       .  A
C1757      C1758   1.402       .  A
C1757      H1761   1.083       .  S
C1758      O1762   1.371       .  S
O1760      H1764   0.992       .  S
O1762      H1763   0.992       .  S
C1765      C1766   1.404       .  A
C1765      C1770   1.408       .  A
C1766      C1767   1.402       .  A
C1766      H1771   1.084       .  S
C1767      C1768   1.405       .  A
C1767      O1772   1.371       .  S
C1768      C1769   1.401       .  A
C1769      C1770   1.403       .  A
C1769      H1773   1.084       .  S
C1770      O1774   1.371       .  S
O1772      H1776   0.992       .  S
O1774      H1775   0.992       .  S
C1777      C1778   1.400       .  A
C1777      C1782   1.408       .  A
C1778      C1779   1.400       .  A
C1778      H1783   1.084       .  S
C1779      C1780   1.409       .  A
C1779      O1784   1.373       .  S
C1780      C1781   1.402       .  A
C1781      C1782   1.402       .  A
C1781      H1785   1.080       .  S
C1782      O1786   1.371       .  S
O1784      H1788   0.991       .  S
O1786      H1787   0.992       .  S
C1789      C1790   1.398       .  A
C1789      C1794   1.405       .  A
C1790      C1791   1.401       .  A
C1790      H1795   1.084       .  S
C1791      C1792   1.420       .  A
C1791      O1796   1.371       .  S
C1792      C1793   1.409       .  A
C1793      C1794   1.400       .  A
C1793      H1797   1.083       .  S
C1794      O1798   1.372       .  S
O1796      H1800   0.992       .  S
O1798      H1799   0.992       .  S
C1801      C1802   1.412       .  A
C1801      C1806   1.409       .  A
C1802      C1803   1.401       .  A
C1802      H1807   1.084       .  S
C1803      C1804   1.401       .  A
C1803      O1808   1.371       .  S
C1804      C1805   1.403       .  A
C1805      C1806   1.401       .  A
C1805      H1809   1.082       .  S
C1806      O1810   1.372       .  S
O1808      H1812   0.992   1_565  S
O1810      H1811   0.992       .  S
C1813      C1814   1.399       .  A
C1813      C1818   1.408       .  A
C1814      C1815   1.394       .  A
C1814      H1819   1.084       .  S
C1815      C1816   1.407       .  A
C1815      O1820   1.372       .  S
C1816      C1817   1.402       .  A
C1817      C1818   1.404       .  A
C1817      H1821   1.083       .  S
C1818      O1822   1.371       .  S
O1820      H1824   0.992       .  S
O1822      H1823   0.992       .  S
C1825      C1826   1.403       .  A
C1825      C1830   1.410       .  A
C1826      C1827   1.401       .  A
C1826      H1831   1.084       .  S
C1827      C1828   1.412       .  A
C1827      O1832   1.371       .  S
C1828      C1829   1.404       .  A
C1829      C1830   1.396       .  A
C1829      H1833   1.084       .  S
C1830      O1834   1.373       .  S
O1832      H1836   0.992       .  S
O1834      H1835   0.992       .  S
C1837      C1838   1.405       .  A
C1837      C1842   1.411       .  A
C1838      C1839   1.404       .  A
C1838      H1843   1.084       .  S
C1839      C1840   1.413       .  A
C1839      O1844   1.373       .  S
C1840      C1841   1.405       .  A
C1841      C1842   1.401       .  A
C1841      H1845   1.083       .  S
C1842      O1846   1.372       .  S
O1844      H1848   0.992       .  S
O1846      H1847   0.992       .  S
C1849      C1850   1.408       .  A
C1849      C1854   1.403       .  A
C1850      C1851   1.414       .  A
C1850      H1855   1.083       .  S
C1851      C1852   1.414       .  A
C1851      O1856   1.371       .  S
C1852      C1853   1.408       .  A
C1853      C1854   1.389       .  A
C1853      H1857   1.081       .  S
C1854      O1858   1.374       .  S
O1856      H1860   0.992       .  S
O1858      H1859   0.992       .  S
C1861      C1862   1.404       .  A
C1861      C1866   1.409       .  A
C1862      C1863   1.403       .  A
C1862      H1867   1.083       .  S
C1863      C1864   1.409       .  A
C1863      O1868   1.371       .  S
C1864      C1865   1.402       .  A
C1865      C1866   1.405       .  A
C1865      H1869   1.084       .  S
C1866      O1870   1.373       .  S
O1868      H1872   0.992       .  S
O1870      H1871   0.991       .  S
C1873      C1874   1.405       .  A
C1873      C1878   1.407       .  A
C1874      C1875   1.399       .  A
C1874      H1879   1.084       .  S
C1875      C1876   1.404       .  A
C1875      O1880   1.371       .  S
C1876      C1877   1.407       .  A
C1877      C1878   1.407       .  A
C1877      H1881   1.083       .  S
C1878      O1882   1.371       .  S
O1880      H1884   0.992       .  S
O1882      H1883   0.992       .  S
C1885      C1886   1.411       .  A
C1885      C1890   1.416       .  A
C1886      C1887   1.411       .  A
C1886      H1891   1.080       .  S
C1887      C1888   1.422       .  A
C1887      O1892   1.372       .  S
C1888      C1889   1.409       .  A
C1889      C1890   1.395       .  A
C1889      H1893   1.061       .  S
C1890      O1894   1.369       .  S
O1892      H1896   0.993       .  S
O1894      H1895   0.993       .  S
C1897      C1898   1.395       .  A
C1897      C1902   1.404       .  A
C1898      C1899   1.392       .  A
C1898      H1903   1.084       .  S
C1899      C1900   1.419       .  A
C1899      O1904   1.372   1_565  S
C1900      C1901   1.409       .  A
C1901      C1902   1.401       .  A
C1901      H1905   1.083       .  S
C1902      O1906   1.371       .  S
O1904      H1908   0.992       .  S
O1906      H1907   0.992       .  S
C1909      C1910   1.404       .  A
C1909      C1914   1.405       .  A
C1910      C1911   1.394       .  A
C1910      H1915   1.084       .  S
C1911      C1912   1.401       .  A
C1911      O1916   1.371   1_565  S
C1912      C1913   1.405       .  A
C1913      C1914   1.398       .  A
C1913      H1917   1.084       .  S
C1914      O1918   1.371       .  S
O1916      H1920   0.991       .  S
O1918      H1919   0.992       .  S
C1921      C1922   1.403       .  A
C1921      C1926   1.403       .  A
C1922      C1923   1.405       .  A
C1922      H1927   1.083       .  S
C1923      C1924   1.410       .  A
C1923      O1928   1.373       .  S
C1924      C1925   1.404       .  A
C1925      C1926   1.393       .  A
C1925      H1929   1.084       .  S
C1926      O1930   1.372       .  S
O1928      H1932   0.991       .  S
O1930      H1931   0.992       .  S
C1933      C1934   1.400       .  A
C1933      C1938   1.405       .  A
C1934      C1935   1.406       .  A
C1934      H1939   1.084       .  S
C1935      C1936   1.414       .  A
C1935      O1940   1.373       .  S
C1936      C1937   1.405       .  A
C1937      C1938   1.400       .  A
C1937      H1941   1.084       .  S
C1938      O1942   1.372       .  S
O1940      H1944   0.992       .  S
O1942      H1943   0.991       .  S
C1945      C1946   1.404       .  A
C1945      C1950   1.408       .  A
C1946      C1947   1.406       .  A
C1946      H1951   1.083       .  S
C1947      C1948   1.408       .  A
C1947      O1952   1.371       .  S
C1948      C1949   1.397       .  A
C1949      C1950   1.392       .  A
C1949      H1953   1.084       .  S
C1950      O1954   1.373       .  S
O1952      H1956   0.992       .  S
O1954      H1955   0.992       .  S
C1957      C1958   1.404       .  A
C1957      C1962   1.411       .  A
C1958      C1959   1.390       .  A
C1958      H1963   1.084   1_556  S
C1959      C1960   1.404       .  A
C1959      O1964   1.373       .  S
C1960      C1961   1.403       .  A
C1961      C1962   1.405       .  A
C1961      H1965   1.083       .  S
C1962      O1966   1.371       .  S
O1964      H1968   0.992       .  S
O1966      H1967   0.992       .  S
C1969      C1970   1.404       .  A
C1969      C1974   1.411       .  A
C1970      C1971   1.406       .  A
C1970      H1975   1.083       .  S
C1971      C1972   1.412       .  A
C1971      O1976   1.369       .  S
C1972      C1973   1.411       .  A
C1973      C1974   1.402       .  A
C1973      H1977   1.079       .  S
C1974      O1978   1.373       .  S
O1976      H1980   0.992       .  S
O1978      H1979   0.992       .  S
C1981      C1982   1.398       .  A
C1981      C1986   1.403       .  A
C1982      C1983   1.398       .  A
C1982      H1987   1.084       .  S
C1983      C1984   1.417       .  A
C1983      O1988   1.371       .  S
C1984      C1985   1.411       .  A
C1985      C1986   1.402       .  A
C1985      H1989   1.083       .  S
C1986      O1990   1.371       .  S
O1988      H1992   0.992       .  S
O1990      H1991   0.992       .  S
C1993      C1994   1.404       .  A
C1993      C1998   1.412       .  A
C1994      C1995   1.396       .  A
C1994      H1999   1.084       .  S
C1995      C1996   1.405       .  A
C1995      O2000   1.372       .  S
C1996      C1997   1.402       .  A
C1997      C1998   1.408       .  A
C1997      H2001   1.083       .  S
C1998      O2002   1.372       .  S
O2000      H2004   0.992       .  S
O2002      H2003   0.992       .  S
C2005      C2006   1.401       .  A
C2005      C2010   1.417       .  A
C2006      C2007   1.400       .  A
C2006      H2011   1.084       .  S
C2007      C2008   1.409       .  A
C2007      O2012   1.374       .  S
C2008      C2009   1.397       .  A
C2009      C2010   1.402       .  A
C2009      H2013   1.084       .  S
C2010      O2014   1.371       .  S
O2012      H2016   0.992       .  S
O2014      H2015   0.992       .  S
C2017      C2018   1.405       .  A
C2017      C2022   1.409       .  A
C2018      C2019   1.408       .  A
C2018      H2023   1.083       .  S
C2019      C2020   1.411       .  A
C2019      O2024   1.373       .  S
C2020      C2021   1.404       .  A
C2021      C2022   1.400       .  A
C2021      H2025   1.084       .  S
C2022      O2026   1.372       .  S
O2024      H2028   0.992       .  S
O2026      H2027   0.992       .  S
C2029      C2030   1.406       .  A
C2029      C2034   1.415       .  A
C2030      C2031   1.400       .  A
C2030      H2035   1.083       .  S
C2031      C2032   1.405       .  A
C2031      O2036   1.371       .  S
C2032      C2033   1.399       .  A
C2033      C2034   1.403       .  A
C2033      H2037   1.084       .  S
C2034      O2038   1.374       .  S
O2036      H2040   0.992       .  S
O2038      H2039   0.992       .  S
C2041      C2042   1.400       .  A
C2041      C2046   1.410       .  A
C2042      C2043   1.383       .  A
C2042      H2047   1.084       .  S
C2043      C2044   1.418       .  A
C2043      O2048   1.372       .  S
C2044      C2045   1.415       .  A
C2045      C2046   1.413       .  A
C2045      H2049   1.082       .  S
C2046      O2050   1.370       .  S
O2048      H2052   0.993       .  S
O2050      H2051   0.991       .  S
C2053      C2054   1.399       .  A
C2053      C2058   1.407       .  A
C2054      C2055   1.401       .  A
C2054      H2059   1.084       .  S
C2055      C2056   1.415       .  A
C2055      O2060   1.371       .  S
C2056      C2057   1.403       .  A
C2057      C2058   1.394       .  A
C2057      H2061   1.084       .  S
C2058      O2062   1.373       .  S
O2060      H2064   0.992       .  S
O2062      H2063   0.992       .  S
C2065      C2066   1.405       .  A
C2065      C2070   1.413       .  A
C2066      C2067   1.383       .  A
C2066      H2071   1.083       .  S
C2067      C2068   1.412       .  A
C2067      O2072   1.374       .  S
C2068      C2069   1.412       .  A
C2069      C2070   1.413       .  A
C2069      H2073   1.083       .  S
C2070      O2074   1.371       .  S
O2072      H2076   0.993       .  S
O2074      H2075   0.992       .  S
C2077      C2078   1.403       .  A
C2077      C2082   1.411       .  A
C2078      C2079   1.383       .  A
C2078      H2083   1.084       .  S
C2079      C2080   1.416       .  A
C2079      O2084   1.374       .  S
C2080      C2081   1.414       .  A
C2081      C2082   1.414       .  A
C2081      H2085   1.082       .  S
C2082      O2086   1.371       .  S
O2084      H2088   0.993       .  S
O2086      H2087   0.991       .  S
C2089      C2090   1.412       .  A
C2089      C2094   1.415       .  A
C2090      C2091   1.401       .  A
C2090      H2095   1.083       .  S
C2091      C2092   1.404       .  A
C2091      O2096   1.372       .  S
C2092      C2093   1.402       .  A
C2093      C2094   1.400       .  A
C2093      H2097   1.084       .  S
C2094      O2098   1.371       .  S
O2096      H2100   0.992       .  S
O2098      H2099   0.992       .  S
C2101      C2102   1.410       .  A
C2101      C2106   1.409       .  A
C2102      C2103   1.404       .  A
C2102      H2107   1.083       .  S
C2103      C2104   1.403       .  A
C2103      O2108   1.371       .  S
C2104      C2105   1.404       .  A
C2105      C2106   1.397       .  A
C2105      H2109   1.083       .  S
C2106      O2110   1.372       .  S
O2108      H2112   0.992       .  S
O2110      H2111   0.992       .  S
C2113      C2114   1.412       .  A
C2113      C2118   1.410       .  A
C2114      C2115   1.405       .  A
C2114      H2119   1.083       .  S
C2115      C2116   1.403       .  A
C2115      O2120   1.371       .  S
C2116      C2117   1.405       .  A
C2117      C2118   1.400       .  A
C2117      H2121   1.084       .  S
C2118      O2122   1.372       .  S
O2120      H2124   0.992       .  S
O2122      H2123   0.992       .  S
C2125      C2126   1.402       .  A
C2125      C2130   1.407       .  A
C2126      C2127   1.405       .  A
C2126      H2131   1.083       .  S
C2127      C2128   1.410       .  A
C2127      O2132   1.371       .  S
C2128      C2129   1.398       .  A
C2129      C2130   1.395       .  A
C2129      H2133   1.084       .  S
C2130      O2134   1.373       .  S
O2132      H2136   0.992       .  S
O2134      H2135   0.990       .  S
C2137      C2138   1.409       .  A
C2137      C2142   1.414       .  A
C2138      C2139   1.410       .  A
C2138      H2143   1.083       .  S
C2139      C2140   1.408       .  A
C2139      O2144   1.371       .  S
C2140      C2141   1.398       .  A
C2141      C2142   1.393       .  A
C2141      H2145   1.084       .  S
C2142      O2146   1.372       .  S
O2144      H2148   0.992       .  S
O2146      H2147   0.992       .  S
C2149      C2150   1.410       .  A
C2149      C2154   1.415       .  A
C2150      C2151   1.400       .  A
C2150      H2155   1.083       .  S
C2151      C2152   1.402       .  A
C2151      O2156   1.371       .  S
C2152      C2153   1.399       .  A
C2153      C2154   1.400       .  A
C2153      H2157   1.084       .  S
C2154      O2158   1.372       .  S
O2156      H2160   0.992       .  S
O2158      H2159   0.992       .  S
C2161      C2162   1.412       .  A
C2161      C2166   1.418       .  A
C2162      C2163   1.401       .  A
C2162      H2167   1.074       .  S
C2163      C2164   1.415       .  A
C2163      O2168   1.370       .  S
C2164      C2165   1.406       .  A
C2165      C2166   1.401       .  A
C2165      H2169   1.083       .  S
C2166      O2170   1.365       .  S
O2168      H2172   0.992       .  S
O2170      H2171   0.992       .  S
C2173      C2174   1.399       .  A
C2173      C2178   1.407       .  A
C2174      C2175   1.404       .  A
C2174      H2179   1.084       .  S
C2175      C2176   1.420       .  A
C2175      O2180   1.374       .  S
C2176      C2177   1.408       .  A
C2177      C2178   1.405       .  A
C2177      H2181   1.082       .  S
C2178      O2182   1.371       .  S
O2180      H2184   0.993       .  S
O2182      H2183   0.992       .  S
C2185      C2186   1.405       .  A
C2185      C2190   1.406       .  A
C2186      C2187   1.397       .  A
C2186      H2191   1.084       .  S
C2187      C2188   1.405       .  A
C2187      O2192   1.372       .  S
C2188      C2189   1.406       .  A
C2189      C2190   1.405       .  A
C2189      H2193   1.083       .  S
C2190      O2194   1.371       .  S
O2192      H2196   0.992       .  S
O2194      H2195   0.992       .  S
C2197      C2198   1.413       .  A
C2197      C2202   1.421       .  A
C2198      C2199   1.418       .  A
C2198      H2203   1.082       .  S
C2199      C2200   1.420       .  A
C2199      O2204   1.376       .  S
C2200      C2201   1.406       .  A
C2201      C2202   1.403       .  A
C2201      H2205   1.078       .  S
C2202      O2206   1.370       .  S
O2204      H2208   0.992       .  S
O2206      H2207   0.992       .  S
C2209      C2210   1.410       .  A
C2209      C2214   1.408       .  A
C2210      C2211   1.405       .  A
C2210      H2215   1.083       .  S
C2211      C2212   1.406       .  A
C2211      O2216   1.371       .  S
C2212      C2213   1.409       .  A
C2213      C2214   1.401       .  A
C2213      H2217   1.084       .  S
C2214      O2218   1.372       .  S
O2216      H2220   0.992       .  S
O2218      H2219   0.992       .  S
C2221      C2222   1.402       .  A
C2221      C2226   1.407       .  A
C2222      C2223   1.396       .  A
C2222      H2227   1.084       .  S
C2223      C2224   1.411       .  A
C2223      O2228   1.372   1_556  S
C2224      C2225   1.404       .  A
C2225      C2226   1.397       .  A
C2225      H2229   1.083       .  S
C2226      O2230   1.372       .  S
O2228      H2232   0.992       .  S
O2230      H2231   0.992       .  S
C2233      C2234   1.399       .  A
C2233      C2238   1.401       .  A
C2234      C2235   1.399       .  A
C2234      H2239   1.084       .  S
C2235      C2236   1.415       .  A
C2235      O2240   1.371       .  S
C2236      C2237   1.409       .  A
C2237      C2238   1.393       .  A
C2237      H2241   1.083       .  S
C2238      O2242   1.372       .  S
O2240      H2244   0.992       .  S
O2242      H2243   0.991       .  S
C2245      C2246   1.400       .  A
C2245      C2250   1.413       .  A
C2246      C2247   1.396       .  A
C2246      H2251   1.084       .  S
C2247      C2248   1.410       .  A
C2247      O2252   1.367       .  S
C2248      C2249   1.404       .  A
C2249      C2250   1.404       .  A
C2249      H2253   1.083       .  S
C2250      O2254   1.373       .  S
O2252      H2256   0.991       .  S
O2254      H2255   0.992       .  S
C2257      C2258   1.405       .  A
C2257      C2262   1.406       .  A
C2258      C2259   1.401       .  A
C2258      H2263   1.084       .  S
C2259      C2260   1.409       .  A
C2259      O2264   1.371       .  S
C2260      C2261   1.408       .  A
C2261      C2262   1.398       .  A
C2261      H2265   1.084       .  S
C2262      O2266   1.372       .  S
O2264      H2268   0.992       .  S
O2266      H2267   0.992       .  S
C2269      C2270   1.405       .  A
C2269      C2274   1.413       .  A
C2270      C2271   1.406       .  A
C2270      H2275   1.083       .  S
C2271      C2272   1.411       .  A
C2271      O2276   1.372       .  S
C2272      C2273   1.401       .  A
C2273      C2274   1.396       .  A
C2273      H2277   1.084       .  S
C2274      O2278   1.372       .  S
O2276      H2280   0.992       .  S
O2278      H2279   0.992       .  S
C2281      C2282   1.403       .  A
C2281      C2286   1.411       .  A
C2282      C2283   1.402       .  A
C2282      H2287   1.084       .  S
C2283      C2284   1.410       .  A
C2283      O2288   1.369       .  S
C2284      C2285   1.410       .  A
C2285      C2286   1.401       .  A
C2285      H2289   1.082       .  S
C2286      O2290   1.372       .  S
O2288      H2292   0.992       .  S
O2290      H2291   0.992       .  S
C2293      C2294   1.402       .  A
C2293      C2298   1.406       .  A
C2294      C2295   1.404       .  A
C2294      H2299   1.083       .  S
C2295      C2296   1.413       .  A
C2295      O2300   1.371   1_556  S
C2296      C2297   1.404       .  A
C2297      C2298   1.393       .  A
C2297      H2301   1.084       .  S
C2298      O2302   1.373       .  S
O2300      H2304   0.991       .  S
O2302      H2303   0.992       .  S
C2305      C2306   1.405       .  A
C2305      C2310   1.407       .  A
C2306      C2307   1.405       .  A
C2306      H2311   1.084       .  S
C2307      C2308   1.409       .  A
C2307      O2312   1.371       .  S
C2308      C2309   1.403       .  A
C2309      C2310   1.400       .  A
C2309      H2313   1.084       .  S
C2310      O2314   1.372       .  S
O2312      H2316   0.992       .  S
O2314      H2315   0.992       .  S
C2317      C2318   1.401       .  A
C2317      C2322   1.402       .  A
C2318      C2319   1.396       .  A
C2318      H2323   1.085       .  S
C2319      C2320   1.410       .  A
C2319      O2324   1.372       .  S
C2320      C2321   1.411       .  A
C2321      C2322   1.402       .  A
C2321      H2325   1.084       .  S
C2322      O2326   1.371       .  S
O2324      H2328   0.992       .  S
O2326      H2327   0.992       .  S
C2329      C2330   1.404       .  A
C2329      C2334   1.408       .  A
C2330      C2331   1.396       .  A
C2330      H2335   1.084       .  S
C2331      C2332   1.407       .  A
C2331      O2336   1.371       .  S
C2332      C2333   1.405       .  A
C2333      C2334   1.404       .  A
C2333      H2337   1.084       .  S
C2334      O2338   1.371       .  S
O2336      H2340   0.992       .  S
O2338      H2339   0.992       .  S
C2341      C2342   1.404       .  A
C2341      C2346   1.408       .  A
C2342      C2343   1.405       .  A
C2342      H2347   1.083       .  S
C2343      C2344   1.412       .  A
C2343      O2348   1.371       .  S
C2344      C2345   1.401       .  A
C2345      C2346   1.394       .  A
C2345      H2349   1.083       .  S
C2346      O2350   1.373       .  S
O2348      H2352   0.992       .  S
O2350      H2351   0.992       .  S
C2353      C2354   1.400       .  A
C2353      C2358   1.404       .  A
C2354      C2355   1.392       .  A
C2354      H2359   1.084       .  S
C2355      C2356   1.408       .  A
C2355      O2360   1.372       .  S
C2356      C2357   1.409       .  A
C2357      C2358   1.406       .  A
C2357      H2361   1.083       .  S
C2358      O2362   1.371       .  S
O2360      H2364   0.992       .  S
O2362      H2363   0.992       .  S
C2365      C2366   1.402       .  A
C2365      C2370   1.411       .  A
C2366      C2367   1.400       .  A
C2366      H2371   1.084       .  S
C2367      C2368   1.409       .  A
C2367      O2372   1.373       .  S
C2368      C2369   1.405       .  A
C2369      C2370   1.406       .  A
C2369      H2373   1.083       .  S
C2370      O2374   1.371       .  S
O2372      H2376   0.991       .  S
O2374      H2375   0.992       .  S
C2377      C2378   1.405       .  A
C2377      C2382   1.410       .  A
C2378      C2379   1.405       .  A
C2378      H2383   1.083       .  S
C2379      C2380   1.409       .  A
C2379      O2384   1.371       .  S
C2380      C2381   1.399       .  A
C2381      C2382   1.401       .  A
C2381      H2385   1.084       .  S
C2382      O2386   1.373       .  S
O2384      H2388   0.992       .  S
O2386      H2387   0.991       .  S
C2389      C2390   1.405       .  A
C2389      C2394   1.410       .  A
C2390      C2391   1.396       .  A
C2390      H2395   1.084       .  S
C2391      C2392   1.406       .  A
C2391      O2396   1.372       .  S
C2392      C2393   1.406       .  A
C2393      C2394   1.407       .  A
C2393      H2397   1.083       .  S
C2394      O2398   1.373       .  S
O2396      H2400   0.992       .  S
O2398      H2399   0.992       .  S
C2401      C2402   1.409       .  A
C2401      C2406   1.408       .  A
C2402      C2403   1.404       .  A
C2402      H2407   1.083       .  S
C2403      C2404   1.404       .  A
C2403      O2408   1.371       .  S
C2404      C2405   1.401       .  A
C2405      C2406   1.392       .  A
C2405      H2409   1.085       .  S
C2406      O2410   1.372       .  S
O2408      H2412   0.992       .  S
O2410      H2411   0.992       .  S
C2413      C2414   1.403       .  A
C2413      C2418   1.402       .  A
C2414      C2415   1.395       .  A
C2414      H2419   1.084       .  S
C2415      C2416   1.408       .  A
C2415      O2420   1.372       .  S
C2416      C2417   1.412       .  A
C2417      C2418   1.403       .  A
C2417      H2421   1.083       .  S
C2418      O2422   1.371       .  S
O2420      H2424   0.992       .  S
O2422      H2423   0.992       .  S
C2425      C2426   1.399       .  A
C2425      C2430   1.409       .  A
C2426      C2427   1.402       .  A
C2426      H2431   1.084       .  S
C2427      C2428   1.410       .  A
C2427      O2432   1.373       .  S
C2428      C2429   1.404       .  A
C2429      C2430   1.404       .  A
C2429      H2433   1.083       .  S
C2430      O2434   1.371       .  S
O2432      H2436   0.991       .  S
O2434      H2435   0.992       .  S
C2437      C2438   1.403       .  A
C2437      C2442   1.405       .  A
C2438      C2439   1.389       .  A
C2438      H2443   1.085       .  S
C2439      C2440   1.412       .  A
C2439      O2444   1.372   1_556  S
C2440      C2441   1.415       .  A
C2441      C2442   1.409       .  A
C2441      H2445   1.083       .  S
C2442      O2446   1.371       .  S
O2444      H2448   0.992       .  S
O2446      H2447   0.992       .  S
C2449      C2450   1.403       .  A
C2449      C2454   1.405       .  A
C2450      C2451   1.395       .  A
C2450      H2455   1.084       .  S
C2451      C2452   1.404       .  A
C2451      O2456   1.372       .  S
C2452      C2453   1.405       .  A
C2453      C2454   1.400       .  A
C2453      H2457   1.084       .  S
C2454      O2458   1.372       .  S
O2456      H2460   0.992       .  S
O2458      H2459   0.992       .  S
C2461      C2462   1.402       .  A
C2461      C2466   1.408       .  A
C2462      C2463   1.400       .  A
C2462      H2467   1.084       .  S
C2463      C2464   1.409       .  A
C2463      O2468   1.373       .  S
C2464      C2465   1.407       .  A
C2465      C2466   1.405       .  A
C2465      H2469   1.083       .  S
C2466      O2470   1.371       .  S
O2468      H2472   0.992       .  S
O2470      H2471   0.992       .  S
C2473      C2474   1.403       .  A
C2473      C2478   1.416       .  A
C2474      C2475   1.388       .  A
C2474      H2479   1.083       .  S
C2475      C2476   1.412       .  A
C2475      O2480   1.374       .  S
C2476      C2477   1.406       .  A
C2477      C2478   1.409       .  A
C2477      H2481   1.083       .  S
C2478      O2482   1.371       .  S
O2480      H2484   0.992       .  S
O2482      H2483   0.992       .  S
C2485      C2486   1.402       .  A
C2485      C2490   1.403       .  A
C2486      C2487   1.401       .  A
C2486      H2491   1.084       .  S
C2487      C2488   1.410       .  A
C2487      O2492   1.372       .  S
C2488      C2489   1.408       .  A
C2489      C2490   1.400       .  A
C2489      H2493   1.084       .  S
C2490      O2494   1.371       .  S
O2492      H2496   0.992       .  S
O2494      H2495   0.992       .  S
C2497      C2498   1.407       .  A
C2497      C2502   1.413       .  A
C2498      C2499   1.411       .  A
C2498      H2503   1.083       .  S
C2499      C2500   1.414       .  A
C2499      O2504   1.372       .  S
C2500      C2501   1.402       .  A
C2501      C2502   1.381       .  A
C2501      H2505   1.083       .  S
C2502      O2506   1.374       .  S
O2504      H2508   0.992       .  S
O2506      H2507   0.992       .  S
C2509      C2510   1.406       .  A
C2509      C2514   1.404       .  A
C2510      C2511   1.405       .  A
C2510      H2515   1.084       .  S
C2511      C2512   1.408       .  A
C2511      O2516   1.373       .  S
C2512      C2513   1.406       .  A
C2513      C2514   1.397       .  A
C2513      H2517   1.084       .  S
C2514      O2518   1.372       .  S
O2516      H2520   0.992       .  S
O2518      H2519   0.992       .  S
C2521      C2522   1.396       .  A
C2521      C2526   1.405       .  A
C2522      C2523   1.390       .  A
C2522      H2527   1.085       .  S
C2523      C2524   1.417       .  A
C2523      O2528   1.373       .  S
C2524      C2525   1.410       .  A
C2525      C2526   1.406       .  A
C2525      H2529   1.083       .  S
C2526      O2530   1.371       .  S
O2528      H2532   0.992       .  S
O2530      H2531   0.992       .  S
C2533      C2534   1.404       .  A
C2533      C2538   1.405       .  A
C2534      C2535   1.392       .  A
C2534      H2539   1.084       .  S
C2535      C2536   1.405       .  A
C2535      O2540   1.372       .  S
C2536      C2537   1.406       .  A
C2537      C2538   1.402       .  A
C2537      H2541   1.084       .  S
C2538      O2542   1.371       .  S
O2540      H2544   0.992       .  S
O2542      H2543   0.992       .  S
C2545      C2546   1.413       .  A
C2545      C2550   1.412       .  A
C2546      C2547   1.413       .  A
C2546      H2551   1.078       .  S
C2547      C2548   1.416       .  A
C2547      O2552   1.378       .  S
C2548      C2549   1.407       .  A
C2549      C2550   1.398       .  A
C2549      H2553   1.069       .  S
C2550      O2554   1.375       .  S
O2552      H2556   0.992       .  S
O2554      H2555   0.993       .  S
C2557      C2558   1.401       .  A
C2557      C2562   1.409       .  A
C2558      C2559   1.403       .  A
C2558      H2563   1.083       .  S
C2559      C2560   1.414       .  A
C2559      O2564   1.371       .  S
C2560      C2561   1.402       .  A
C2561      C2562   1.390       .  A
C2561      H2565   1.084       .  S
C2562      O2566   1.374       .  S
O2564      H2568   0.992       .  S
O2566      H2567   0.992       .  S
C2569      C2570   1.400       .  A
C2569      C2574   1.402       .  A
C2570      C2571   1.398       .  A
C2570      H2575   1.084       .  S
C2571      C2572   1.415       .  A
C2571      O2576   1.372       .  S
C2572      C2573   1.408       .  A
C2573      C2574   1.397       .  A
C2573      H2577   1.083       .  S
C2574      O2578   1.371       .  S
O2576      H2580   0.992       .  S
O2578      H2579   0.992       .  S
C2581      C2582   1.408       .  A
C2581      C2586   1.413       .  A
C2582      C2583   1.397       .  A
C2582      H2587   1.083       .  S
C2583      C2584   1.404       .  A
C2583      O2588   1.372       .  S
C2584      C2585   1.401       .  A
C2585      C2586   1.397       .  A
C2585      H2589   1.084       .  S
C2586      O2590   1.372       .  S
O2588      H2592   0.992       .  S
O2590      H2591   0.992       .  S
C2593      C2594   1.397       .  A
C2593      C2598   1.407       .  A
C2594      C2595   1.394       .  A
C2594      H2599   1.084       .  S
C2595      C2596   1.416       .  A
C2595      O2600   1.372       .  S
C2596      C2597   1.407       .  A
C2597      C2598   1.401       .  A
C2597      H2601   1.083       .  S
C2598      O2602   1.371       .  S
O2600      H2604   0.992       .  S
O2602      H2603   0.992       .  S
C2605      C2606   1.404       .  A
C2605      C2610   1.407       .  A
C2606      C2607   1.401       .  A
C2606      H2611   1.084       .  S
C2607      C2608   1.413       .  A
C2607      O2612   1.374       .  S
C2608      C2609   1.404       .  A
C2609      C2610   1.401       .  A
C2609      H2613   1.084       .  S
C2610      O2614   1.372       .  S
O2612      H2616   0.992       .  S
O2614      H2615   0.992       .  S
C2617      C2618   1.399       .  A
C2617      C2622   1.402       .  A
C2618      C2619   1.398       .  A
C2618      H2623   1.084       .  S
C2619      C2620   1.416       .  A
C2619      O2624   1.371       .  S
C2620      C2621   1.411       .  A
C2621      C2622   1.400       .  A
C2621      H2625   1.083       .  S
C2622      O2626   1.371       .  S
O2624      H2628   0.992       .  S
O2626      H2627   0.992       .  S
C2629      C2630   1.404       .  A
C2629      C2634   1.408       .  A
C2630      C2631   1.392       .  A
C2630      H2635   1.084       .  S
C2631      C2632   1.408       .  A
C2631      O2636   1.372       .  S
C2632      C2633   1.408       .  A
C2633      C2634   1.405       .  A
C2633      H2637   1.083       .  S
C2634      O2638   1.372       .  S
O2636      H2640   0.992       .  S
O2638      H2639   0.992       .  S
C2641      C2642   1.408       .  A
C2641      C2646   1.408       .  A
C2642      C2643   1.417       .  A
C2642      H2647   1.083       .  S
C2643      C2644   1.420       .  A
C2643      O2648   1.372       .  S
C2644      C2645   1.409       .  A
C2645      C2646   1.386       .  A
C2645      H2649   1.080       .  S
C2646      O2650   1.375       .  S
O2648      H2652   0.992       .  S
O2650      H2651   0.992       .  S
C2653      C2654   1.399       .  A
C2653      C2658   1.408       .  A
C2654      C2655   1.403       .  A
C2654      H2659   1.084       .  S
C2655      C2656   1.420       .  A
C2655      O2660   1.371       .  S
C2656      C2657   1.407       .  A
C2657      C2658   1.401       .  A
C2657      H2661   1.083       .  S
C2658      O2662   1.372       .  S
O2660      H2664   0.992       .  S
O2662      H2663   0.992       .  S
C2665      C2666   1.403       .  A
C2665      C2670   1.408       .  A
C2666      C2667   1.408       .  A
C2666      H2671   1.083       .  S
C2667      C2668   1.411       .  A
C2667      O2672   1.370       .  S
C2668      C2669   1.412       .  A
C2669      C2670   1.402       .  A
C2669      H2673   1.082       .  S
C2670      O2674   1.371       .  S
O2672      H2676   0.992       .  S
O2674      H2675   0.991       .  S
C2677      C2678   1.412       .  A
C2677      C2682   1.410       .  A
C2678      C2679   1.400       .  A
C2678      H2683   1.084       .  S
C2679      C2680   1.400       .  A
C2679      O2684   1.371       .  S
C2680      C2681   1.402       .  A
C2681      C2682   1.400       .  A
C2681      H2685   1.082       .  S
C2682      O2686   1.372       .  S
O2684      H2688   0.992       .  S
O2686      H2687   0.992       .  S
C2689      C2690   1.402       .  A
C2689      C2694   1.404       .  A
C2690      C2691   1.397       .  A
C2690      H2695   1.084       .  S
C2691      C2692   1.413       .  A
C2691      O2696   1.372       .  S
C2692      C2693   1.411       .  A
C2693      C2694   1.405       .  A
C2693      H2697   1.083       .  S
C2694      O2698   1.371       .  S
O2696      H2700   0.992       .  S
O2698      H2699   0.992       .  S
C2701      C2702   1.402       .  A
C2701      C2706   1.411       .  A
C2702      C2703   1.384       .  A
C2702      H2707   1.084       .  S
C2703      C2704   1.413       .  A
C2703      O2708   1.372       .  S
C2704      C2705   1.414       .  A
C2705      C2706   1.416       .  A
C2705      H2709   1.083       .  S
C2706      O2710   1.371       .  S
O2708      H2712   0.992   1_565  S
O2710      H2711   0.992       .  S
C2713      C2714   1.406       .  A
C2713      C2718   1.405       .  A
C2714      C2715   1.404       .  A
C2714      H2719   1.084       .  S
C2715      C2716   1.411       .  A
C2715      O2720   1.371       .  S
C2716      C2717   1.410       .  A
C2717      C2718   1.396       .  A
C2717      H2721   1.083       .  S
C2718      O2722   1.372       .  S
O2720      H2724   0.992   1_565  S
O2722      H2723   0.992       .  S
C2725      C2726   1.404       .  A
C2725      C2730   1.410       .  A
C2726      C2727   1.406       .  A
C2726      H2731   1.083       .  S
C2727      C2728   1.411       .  A
C2727      O2732   1.371       .  S
C2728      C2729   1.407       .  A
C2729      C2730   1.400       .  A
C2729      H2733   1.079       .  S
C2730      O2734   1.373       .  S
O2732      H2736   0.991       .  S
O2734      H2735   0.992       .  S
C2737      C2738   1.409       .  A
C2737      C2742   1.412       .  A
C2738      C2739   1.400       .  A
C2738      H2743   1.084       .  S
C2739      C2740   1.403       .  A
C2739      O2744   1.372       .  S
C2740      C2741   1.399       .  A
C2741      C2742   1.398       .  A
C2741      H2745   1.082       .  S
C2742      O2746   1.371       .  S
O2744      H2748   0.992       .  S
O2746      H2747   0.991       .  S
C2749      C2750   1.404       .  A
C2749      C2754   1.405       .  A
C2750      C2751   1.402       .  A
C2750      H2755   1.084       .  S
C2751      C2752   1.413       .  A
C2751      O2756   1.372       .  S
C2752      C2753   1.408       .  A
C2753      C2754   1.399       .  A
C2753      H2757   1.082       .  S
C2754      O2758   1.372       .  S
O2756      H2760   0.992       .  S
O2758      H2759   0.992       .  S
C2761      C2762   1.400       .  A
C2761      C2766   1.410       .  A
C2762      C2763   1.402       .  A
C2762      H2767   1.084       .  S
C2763      C2764   1.409       .  A
C2763      O2768   1.377       .  S
C2764      C2765   1.401       .  A
C2765      C2766   1.404       .  A
C2765      H2769   1.083       .  S
C2766      O2770   1.371       .  S
O2768      H2772   0.992       .  S
O2770      H2771   0.992       .  S
C2773      C2774   1.393       .  A
C2773      C2778   1.405       .  A
C2774      C2775   1.393       .  A
C2774      H2779   1.084       .  S
C2775      C2776   1.420   1_556  A
C2775      O2780   1.372       .  S
C2776      C2777   1.406       .  A
C2777      C2778   1.398   1_554  A
C2777      H2781   1.083       .  S
C2778      O2782   1.371       .  S
O2780      H2784   0.992       .  S
O2782      H2783   0.992       .  S
C2785      C2786   1.397       .  A
C2785      C2790   1.406       .  A
C2786      C2787   1.389       .  A
C2786      H2791   1.084       .  S
C2787      C2788   1.407       .  A
C2787      O2792   1.373   1_556  S
C2788      C2789   1.405       .  A
C2789      C2790   1.403       .  A
C2789      H2793   1.084       .  S
C2790      O2794   1.371       .  S
O2792      H2796   0.992       .  S
O2794      H2795   0.992       .  S
C2797      C2798   1.402       .  A
C2797      C2802   1.402       .  A
C2798      C2799   1.401       .  A
C2798      H2803   1.084       .  S
C2799      C2800   1.406       .  A
C2799      O2804   1.372       .  S
C2800      C2801   1.403       .  A
C2801      C2802   1.392       .  A
C2801      H2805   1.084       .  S
C2802      O2806   1.372       .  S
O2804      H2808   0.992       .  S
O2806      H2807   0.992       .  S
C2809      C2810   1.405       .  A
C2809      C2814   1.410       .  A
C2810      C2811   1.399       .  A
C2810      H2815   1.084       .  S
C2811      C2812   1.407       .  A
C2811      O2816   1.372       .  S
C2812      C2813   1.404       .  A
C2813      C2814   1.406       .  A
C2813      H2817   1.083       .  S
C2814      O2818   1.369       .  S
O2816      H2820   0.992       .  S
O2818      H2819   0.991       .  S
C2821      C2822   1.403       .  A
C2821      C2826   1.404       .  A
C2822      C2823   1.396       .  A
C2822      H2827   1.084       .  S
C2823      C2824   1.404       .  A
C2823      O2828   1.372       .  S
C2824      C2825   1.405       .  A
C2825      C2826   1.403       .  A
C2825      H2829   1.083       .  S
C2826      O2830   1.371       .  S
O2828      H2832   0.992       .  S
O2830      H2831   0.992       .  S
C2833      C2834   1.403       .  A
C2833      C2838   1.409       .  A
C2834      C2835   1.397       .  A
C2834      H2839   1.080       .  S
C2835      C2836   1.406       .  A
C2835      O2840   1.372       .  S
C2836      C2837   1.399       .  A
C2837      C2838   1.398       .  A
C2837      H2841   1.084       .  S
C2838      O2842   1.373       .  S
O2840      H2844   0.992       .  S
O2842      H2843   0.992       .  S
C2845      C2846   1.403       .  A
C2845      C2850   1.405       .  A
C2846      C2847   1.394       .  A
C2846      H2851   1.084       .  S
C2847      C2848   1.409       .  A
C2847      O2852   1.372   1_565  S
C2848      C2849   1.407       .  A
C2849      C2850   1.400       .  A
C2849      H2853   1.084       .  S
C2850      O2854   1.371       .  S
O2852      H2856   0.992       .  S
O2854      H2855   0.992       .  S
C2857      C2858   1.411       .  A
C2857      C2862   1.411       .  A
C2858      C2859   1.399       .  A
C2858      H2863   1.084       .  S
C2859      C2860   1.401       .  A
C2859      O2864   1.372       .  S
C2860      C2861   1.400       .  A
C2861      C2862   1.398       .  A
C2861      H2865   1.082       .  S
C2862      O2866   1.371       .  S
O2864      H2868   0.992       .  S
O2866      H2867   0.991       .  S
C2869      C2870   1.399       .  A
C2869      C2874   1.409       .  A
C2870      C2871   1.398       .  A
C2870      H2875   1.084       .  S
C2871      C2872   1.409       .  A
C2871      O2876   1.373       .  S
C2872      C2873   1.400       .  A
C2873      C2874   1.401       .  A
C2873      H2877   1.083       .  S
C2874      O2878   1.371       .  S
O2876      H2880   0.991       .  S
O2878      H2879   0.992       .  S
C2881      C2882   1.403       .  A
C2881      C2886   1.411       .  A
C2882      C2883   1.400       .  A
C2882      H2887   1.084       .  S
C2883      C2884   1.405       .  A
C2883      O2888   1.374       .  S
C2884      C2885   1.402       .  A
C2885      C2886   1.405       .  A
C2885      H2889   1.084       .  S
C2886      O2890   1.372       .  S
O2888      H2892   0.991       .  S
O2890      H2891   0.992       .  S
C2893      C2894   1.399       .  A
C2893      C2898   1.406       .  A
C2894      C2895   1.393       .  A
C2894      H2899   1.084       .  S
C2895      C2896   1.407       .  A
C2895      O2900   1.373       .  S
C2896      C2897   1.405       .  A
C2897      C2898   1.403       .  A
C2897      H2901   1.084       .  S
C2898      O2902   1.371       .  S
O2900      H2904   0.992       .  S
O2902      H2903   0.992       .  S
C2905      C2906   1.399       .  A
C2905      C2910   1.409       .  A
C2906      C2907   1.397       .  A
C2906      H2911   1.084       .  S
C2907      C2908   1.409       .  A
C2907      O2912   1.372       .  S
C2908      C2909   1.402       .  A
C2909      C2910   1.402       .  A
C2909      H2913   1.083       .  S
C2910      O2914   1.371       .  S
O2912      H2916   0.992       .  S
O2914      H2915   0.992       .  S
C2917      C2918   1.402       .  A
C2917      C2922   1.409       .  A
C2918      C2919   1.389       .  A
C2918      H2923   1.084       .  S
C2919      C2920   1.415       .  A
C2919      O2924   1.371   1_556  S
C2920      C2921   1.414       .  A
C2921      C2922   1.414       .  A
C2921      H2925   1.083       .  S
C2922      O2926   1.371       .  S
O2924      H2928   0.992       .  S
O2926      H2927   0.991       .  S
C2929      C2930   1.410       .  A
C2929      C2934   1.412       .  A
C2930      C2931   1.402       .  A
C2930      H2935   1.084       .  S
C2931      C2932   1.404       .  A
C2931      O2936   1.371       .  S
C2932      C2933   1.400       .  A
C2933      C2934   1.400       .  A
C2933      H2937   1.084       .  S
C2934      O2938   1.371       .  S
O2936      H2940   0.992       .  S
O2938      H2939   0.992       .  S
C2941      C2942   1.402       .  A
C2941      C2946   1.410       .  A
C2942      C2943   1.406       .  A
C2942      H2947   1.084       .  S
C2943      C2944   1.412       .  A
C2943      O2948   1.373       .  S
C2944      C2945   1.405       .  A
C2945      C2946   1.403       .  A
C2945      H2949   1.081       .  S
C2946      O2950   1.371       .  S
O2948      H2952   0.992       .  S
O2950      H2951   0.992       .  S
