geometry optimzed in LAMMPS
_audit_creation_date              2020-11-30 
_audit_creation_method            'lammps2cif' 
_symmetry_space_group_name_H-M    'P1' 
_symmetry_Int_Tables_number       1 
_symmetry_cell_setting            triclinic 
loop_ 
_symmetry_equiv_pos_as_xyz 
  x,y,z 
_cell_length_a                    37.32432734 
_cell_length_b                    37.08144564709362 
_cell_length_c                    37.34355060205347 
_cell_angle_alpha                 89.9003985421003 
_cell_angle_beta                  90.57238094730067 
_cell_angle_gamma                 90.20717681791498 
loop_ 
_atom_site_label 
_atom_site_type_symbol 
_atom_site_fract_x 
_atom_site_fract_y 
_atom_site_fract_z 
_atom_site_charge 
O1          O  0.29185402  0.69139256  0.75175442    -0.80400
O2          O  0.29114992  0.80285296  0.74904415    -0.80400
O3          O  0.24606230  0.71283922  0.66825472    -0.80400
O4          O  0.26826692  0.77093486  0.81016120    -0.80400
O5          O  0.28741406  0.75411988  0.68381014    -0.80500
O6          O  0.28382624  0.71482223  0.82489201    -0.80400
O7          O  0.25352445  0.83516279  0.78251970    -0.80400
O8          O  0.24693848  0.66527891  0.72231716    -0.80400
C9          C  0.27876265  0.66435405  0.73449837     1.09300
C10         C  0.28486989  0.83049128  0.76989464     1.09200
C11         C  0.27598219  0.72893179  0.66313535     1.09300
C12         C  0.28423698  0.74868957  0.83206987     1.09200
O13         O  0.21517166  0.73388876  0.81278399    -0.80400
O14         O  0.21823149  0.77461056  0.67236200    -0.80500
O15         O  0.18076404  0.68856196  0.74907046    -0.80400
O16         O  0.21315404  0.82209583  0.72579554    -0.80400
O17         O  0.26016015  0.82709066  0.68970117    -0.80500
O18         O  0.22631149  0.67552181  0.78626722    -0.80400
O19         O  0.19409061  0.78670325  0.79633877    -0.80400
O20         O  0.17582877  0.73706086  0.68750941    -0.80400
Co21       Co  0.25616511  0.71937990  0.78117730     1.51500
Co22       Co  0.25291176  0.78262547  0.71262197     1.51700
Co23       Co  0.21249334  0.70375485  0.70886399     1.51600
Co24       Co  0.23801412  0.79021683  0.76564392     1.51500
O25         O  0.23383415  0.74175135  0.74097606    -1.42300
C26         C  0.19274522  0.75898045  0.81653229     1.09200
C27         C  0.18882124  0.75930111  0.66525368     1.09300
C28         C  0.19395626  0.67089740  0.77562984     1.09200
C29         C  0.23091442  0.84016722  0.70139989     1.09200
O30         O  0.74394086  0.19327504  0.69230922    -0.80400
O31         O  0.74425881  0.19431876  0.80110276    -0.80400
O32         O  0.83340893  0.22409094  0.71982213    -0.80400
O33         O  0.68403678  0.25170072  0.78172101    -0.80400
O34         O  0.80514936  0.18178894  0.75066519    -0.80500
O35         O  0.68548620  0.20582445  0.74485759    -0.80400
O36         O  0.71537044  0.24684926  0.80810840    -0.80400
O37         O  0.78475087  0.23180393  0.67127907    -0.80400
C38         C  0.76884955  0.20137002  0.67035622     1.09300
C39         C  0.72319129  0.21425689  0.81924500     1.09200
C40         C  0.83213089  0.19222034  0.73227851     1.09300
C41         C  0.66813907  0.22385608  0.76818207     1.09200
O42         O  0.68576049  0.27975341  0.72164798    -0.80400
O43         O  0.83492418  0.24464532  0.78130947    -0.80500
O44         O  0.76786699  0.30474408  0.69430539    -0.80400
O45         O  0.75189855  0.30160631  0.81070337    -0.80400
O46         O  0.78238528  0.25309139  0.82593519    -0.80500
O47         O  0.73116123  0.26512536  0.67004199    -0.80400
O48         O  0.69183914  0.31694472  0.76802626    -0.80400
O49         O  0.82337440  0.29376197  0.75008484    -0.80400
Co50       Co  0.71631362  0.23495968  0.71107148     1.51500
Co51       Co  0.78853602  0.21897663  0.78597561     1.51700
Co52       Co  0.79915908  0.26384962  0.71159848     1.51600
Co53       Co  0.72886959  0.28122842  0.76596895     1.51500
O54         O  0.76045413  0.24587131  0.74600470    -1.42300
C55         C  0.67551152  0.30789074  0.73909580     1.09200
C56         C  0.84326423  0.27645983  0.77232887     1.09300
C57         C  0.74434909  0.29645975  0.67066817     1.09200
C58         C  0.77015232  0.28368520  0.83359869     1.09200
O59         O  0.66961168  0.70690254  0.24076830    -0.80400
O60         O  0.81816441  0.75138324  0.21941181    -0.80400
O61         O  0.74771880  0.79228737  0.20753416    -0.80400
O62         O  0.76853478  0.69331001  0.21078691    -0.80400
O63         O  0.78620503  0.81783637  0.24073887    -0.80500
O64         O  0.72889677  0.66086348  0.23965879    -0.80400
O65         O  0.83559643  0.69840131  0.23872258    -0.80400
O66         O  0.69422148  0.74526264  0.20458152    -0.80400
C67         C  0.66795641  0.72582434  0.21244102     1.09300
C68         C  0.83975177  0.72421942  0.21729994     1.09200
C69         C  0.76332556  0.82086520  0.21584288     1.09300
C70         C  0.75182961  0.66389555  0.21461771     1.09200
O71         O  0.74455615  0.68309406  0.31383762    -0.80400
O72         O  0.76993723  0.79151148  0.30820850    -0.80500
O73         O  0.66763285  0.76916801  0.27365797    -0.80400
O74         O  0.81941145  0.72925004  0.30039748    -0.80400
O75         O  0.83816499  0.78236466  0.28203470    -0.80500
O76         O  0.68999176  0.73024658  0.31167612    -0.80400
O77         O  0.78565258  0.66412742  0.27931320    -0.80400
O78         O  0.72599249  0.81764731  0.27821116    -0.80400
Co79       Co  0.71057334  0.69772582  0.27595521     1.51500
Co80       Co  0.79144884  0.76892909  0.26572431     1.51700
Co81       Co  0.71089664  0.77901460  0.24186122     1.51600
Co82       Co  0.79074370  0.71314322  0.25482780     1.51500
O83         O  0.74407773  0.73995837  0.26157058    -1.42300
C84         C  0.76437705  0.65767193  0.30469248     1.09200
C85         C  0.75010239  0.81882766  0.30285875     1.09300
C86         C  0.66397935  0.74907703  0.30111865     1.09200
C87         C  0.84363047  0.75432232  0.30076824     1.09200
C88         C  0.55062227  0.98495855  0.02401030     0.02000
C89         C  0.54922975  0.01482684  0.00049112     0.02000
C90         C  0.52295170  0.01654114  0.97307107     0.02000
C91         C  0.49724531  0.98879068  0.96944896     0.02000
C92         C  0.49733779  0.95915925  0.99342480     0.02000
C93         C  0.52449675  0.95712284  0.02037690     0.02000
C94         C  0.68029785  0.02325792  0.19476869     0.02900
C95         C  0.65463077  0.02120012  0.16679118    -0.13300
C96         C  0.65125274  0.99024345  0.14542054     0.00400
C97         C  0.67422692  0.96112160  0.15235960    -0.11800
C98         C  0.69827068  0.96103553  0.18193138     0.02900
C99         C  0.70073074  0.99241826  0.20320429    -0.11200
H100        H  0.63781718  0.04427650  0.16096168     0.08400
H101        H  0.67229834  0.93761446  0.13525084     0.06000
H102        H  0.71804624  0.99308785  0.22643585     0.05800
C103        C  0.67047521  0.18384593  0.96213216     0.02900
C104        C  0.64813759  0.15382684  0.96628063    -0.13300
C105        C  0.63738510  0.14247751  0.00021276     0.00400
C106        C  0.64583530  0.16389231  0.02996622    -0.11800
C107        C  0.66796763  0.19457291  0.02673764     0.02900
C108        C  0.68057237  0.20435511  0.99256639    -0.11200
H109        H  0.64013927  0.13832549  0.94291276     0.08400
H110        H  0.63681871  0.15552892  0.05620899     0.06000
H111        H  0.69908994  0.22672898  0.98992950     0.05800
C112        C  0.34666209  0.95684258  0.82638209     0.02900
C113        C  0.37590231  0.96232208  0.84927421    -0.13300
C114        C  0.38251215  0.99610910  0.86479294     0.00400
C115        C  0.36070928  0.02541709  0.85496712    -0.11800
C116        C  0.33151816  0.02036084  0.83139553     0.02900
C117        C  0.32418666  0.98586906  0.81781314    -0.11200
H118        H  0.39364557  0.94001762  0.85513954     0.08400
H119        H  0.36708027  0.05227480  0.86442872     0.06000
H120        H  0.30135461  0.98174757  0.80010771     0.05800
C121        C  0.53215678  0.18101325  0.83474706     0.02900
C122        C  0.49811557  0.19748017  0.83003870    -0.13300
C123        C  0.46880121  0.18789069  0.85221313     0.00400
C124        C  0.47414554  0.16005508  0.87755289    -0.11800
C125        C  0.50789660  0.14414362  0.88319382     0.02900
C126        C  0.53678647  0.15592957  0.86240586    -0.11200
H127        H  0.49444062  0.21659309  0.80845606     0.08400
H128        H  0.45165270  0.15037401  0.89290284     0.06000
H129        H  0.56328581  0.14499595  0.86725209     0.05800
C130        C  0.53884816  0.79334700  0.16014419     0.02900
C131        C  0.50384714  0.78498684  0.17139470    -0.13300
C132        C  0.47536352  0.80827012  0.16350362     0.00400
C133        C  0.48077489  0.83740151  0.14056837    -0.11800
C134        C  0.51515240  0.84590404  0.12825254     0.02900
C135        C  0.54419125  0.82398894  0.13859950    -0.11200
H136        H  0.49896207  0.76111167  0.18741603     0.08400
H137        H  0.45785487  0.85315063  0.13192814     0.06000
H138        H  0.57102816  0.83102278  0.13019892     0.05800
C139        C  0.32504998  0.83540489  0.02802487     0.02900
C140        C  0.31599418  0.81304101  0.99859644    -0.13300
C141        C  0.33391739  0.81624495  0.96567461     0.00400
C142        C  0.36221236  0.84134653  0.96264538    -0.11800
C143        C  0.37165633  0.86413905  0.99151533     0.02900
C144        C  0.35228242  0.86120408  0.02348122    -0.11200
H145        H  0.29458285  0.79340579  0.00095641     0.08400
H146        H  0.37597425  0.84401064  0.93736835     0.06000
H147        H  0.35822466  0.87982711  0.04471219     0.05800
C148        C  0.01570345  0.48905313  0.97421611     0.02000
C149        C  0.98889709  0.46298236  0.97932009     0.02000
C150        C  0.96384657  0.46706595  0.00679023     0.02000
C151        C  0.96588509  0.49711814  0.02987805     0.02000
C152        C  0.99234089  0.52414382  0.02399008     0.02000
C153        C  0.01684305  0.52033026  0.99545313     0.02000
C154        C  0.14769934  0.68933966  0.94459673     0.02900
C155        C  0.12851701  0.65634132  0.94102376    -0.13300
C156        C  0.11920070  0.63560070  0.97142175     0.00400
C157        C  0.13260526  0.64629001  0.00495641    -0.11800
C158        C  0.15393747  0.67683977  0.00924684     0.02900
C159        C  0.15911754  0.69968151  0.97958668    -0.11200
H160        H  0.12139337  0.64661085  0.91469042     0.08400
H161        H  0.12638605  0.63054351  0.02856027     0.06000
H162        H  0.17205672  0.72539662  0.98405682     0.05800
C163        C  0.16114786  0.53670451  0.83863261     0.02900
C164        C  0.13217640  0.52756855  0.85993947    -0.13300
C165        C  0.12673111  0.49185500  0.87080673     0.00400
C166        C  0.15221641  0.46558517  0.86225136    -0.11800
C167        C  0.18273615  0.47485975  0.84248863     0.02900
C168        C  0.18661297  0.51045800  0.82989907    -0.11200
H169        H  0.11339536  0.54838959  0.86751079     0.08400
H170        H  0.14784856  0.43779723  0.87017514     0.06000
H171        H  0.20912586  0.51762208  0.81317934     0.05800
C172        C  0.97148673  0.67583044  0.16521630     0.02900
C173        C  0.99777452  0.67676344  0.19271696    -0.13300
C174        C  0.03132717  0.65935420  0.18851436     0.00400
C175        C  0.03670476  0.63957132  0.15663712    -0.11800
C176        C  0.00939493  0.63590648  0.13075730     0.02900
C177        C  0.97863594  0.65693908  0.13385347    -0.11200
H178        H  0.99161269  0.69067133  0.21731837     0.08400
H179        H  0.06215300  0.62697777  0.15148601     0.06000
H180        H  0.95902447  0.65705510  0.11239667     0.05800
C181        C  0.81561701  0.52734973  0.17652092     0.02900
C182        C  0.80837538  0.49703546  0.19765133    -0.13300
C183        C  0.82386315  0.46338192  0.18978630     0.00400
C184        C  0.84903190  0.46141614  0.16183330    -0.11800
C185        C  0.85933665  0.49268015  0.14275555     0.02900
C186        C  0.84175570  0.52527406  0.15010597    -0.11200
H187        H  0.79016244  0.49955461  0.21987378     0.08400
H188        H  0.85974035  0.43544989  0.15452518     0.06000
H189        H  0.84893918  0.54963786  0.13574484     0.05800
C190        C  0.04679063  0.31021617  0.84512047     0.02900
C191        C  0.03975727  0.33595468  0.87171022    -0.13300
C192        C  0.00552927  0.35057094  0.87566088     0.00400
C193        C  0.97851845  0.34099016  0.85143896    -0.11800
C194        C  0.98461894  0.31630566  0.82402779     0.02900
C195        C  0.01890210  0.30066699  0.82073591    -0.11200
H196        H  0.06091386  0.34418218  0.89004466     0.08400
H197        H  0.95166932  0.35141099  0.85502099     0.06000
H198        H  0.02351157  0.28080843  0.80007292     0.05800
C199        C  0.81421014  0.31521506  0.03991975     0.02900
C200        C  0.84152354  0.34155845  0.04016161    -0.13300
C201        C  0.84779080  0.36360752  0.01035060     0.00400
C202        C  0.82847106  0.35711917  0.97871977    -0.11800
C203        C  0.80052629  0.33187745  0.97785143     0.02900
C204        C  0.79246059  0.31209849  0.00908429    -0.11200
H205        H  0.85816080  0.34504599  0.06380145     0.08400
H206        H  0.83599303  0.37101301  0.95435003     0.06000
H207        H  0.77042848  0.29300687  0.00857525     0.05800
C208        C  0.49653381  0.47950423  0.51723103     0.02000
C209        C  0.52420171  0.47897561  0.49167206     0.02000
C210        C  0.52389087  0.50417461  0.46340244     0.02000
C211        C  0.49795387  0.53155386  0.46257934     0.02000
C212        C  0.47106882  0.53273568  0.48862643     0.02000
C213        C  0.46908481  0.50564156  0.51494442     0.02000
C214        C  0.47433115  0.35434244  0.68880288     0.02900
C215        C  0.50785484  0.34577173  0.70352072    -0.13300
C216        C  0.53895274  0.36165792  0.68998769     0.00400
C217        C  0.53663433  0.38548444  0.66111630    -0.11800
C218        C  0.50311788  0.39528990  0.64689183     0.02900
C219        C  0.47197057  0.37979804  0.66120908    -0.11200
H220        H  0.51002364  0.32529873  0.72416615     0.08400
H221        H  0.56105352  0.39521884  0.64888785     0.06000
H222        H  0.44587649  0.38665856  0.65021902     0.05800
C223        C  0.32675188  0.68852196  0.45941329     0.02900
C224        C  0.31401288  0.70098002  0.49247525    -0.13300
C225        C  0.32872990  0.68718735  0.52449762     0.00400
C226        C  0.35518514  0.66058484  0.52306860    -0.11800
C227        C  0.36747726  0.64778909  0.49017860     0.02900
C228        C  0.35462389  0.66349479  0.45862557    -0.11200
H229        H  0.29278460  0.72080609  0.49328505     0.08400
H230        H  0.36548604  0.64915734  0.54782612     0.06000
H231        H  0.36522103  0.65500019  0.43306551     0.05800
C232        C  0.68968798  0.52274295  0.32826459     0.02900
C233        C  0.65864883  0.52881851  0.34856567    -0.13300
C234        C  0.63434480  0.50084845  0.35578508     0.00400
C235        C  0.63803505  0.46808805  0.33774845    -0.11800
C236        C  0.66761212  0.46148954  0.31624797     0.02900
C237        C  0.69439211  0.48810470  0.31304493    -0.11200
H238        H  0.65339468  0.55546177  0.35891287     0.08400
H239        H  0.61856225  0.44672942  0.34157673     0.06000
H240        H  0.71880952  0.48122833  0.29950156     0.05800
C241        C  0.45802331  0.67701538  0.31103320     0.02900
C242        C  0.46188646  0.64897889  0.33639317    -0.13300
C243        C  0.49356943  0.64369095  0.35589454     0.00400
C244        C  0.52217116  0.66715351  0.35093349    -0.11800
C245        C  0.52070976  0.69441567  0.32520736     0.02900
C246        C  0.48812854  0.70049681  0.30621932    -0.11200
H247        H  0.44049780  0.62988311  0.34068057     0.08400
H248        H  0.54718640  0.66235729  0.36516080     0.06000
H249        H  0.48701843  0.72290467  0.28794326     0.05800
C250        C  0.33006589  0.53003731  0.67530535     0.02900
C251        C  0.31542997  0.49516834  0.68289724    -0.13300
C252        C  0.32052508  0.46565512  0.65937507     0.00400
C253        C  0.34257235  0.47026148  0.62971752    -0.11800
C254        C  0.35854698  0.50361418  0.62264421     0.02900
C255        C  0.35010699  0.53368511  0.64367099    -0.11200
H256        H  0.30069289  0.49040148  0.70724276     0.08400
H257        H  0.34901501  0.44717049  0.61322822     0.06000
H258        H  0.36023999  0.55971803  0.63544853     0.05800
C259        C  0.66371234  0.32067665  0.47594635     0.02900
C260        C  0.68065462  0.31339173  0.50967496    -0.13300
C261        C  0.67902615  0.33845546  0.53836293     0.00400
C262        C  0.65854701  0.36976658  0.53407132    -0.11800
C263        C  0.64201953  0.37773142  0.50134672     0.02900
C264        C  0.64786082  0.35501676  0.47196414    -0.11200
H265        H  0.69438175  0.28826020  0.51451196     0.08400
H266        H  0.65390003  0.38678740  0.55704607     0.06000
H267        H  0.63804019  0.36404104  0.44623665     0.05800
C268        C  0.98001581  0.00512827  0.45565619     0.02000
C269        C  0.00871826  0.98059594  0.45424008     0.02000
C270        C  0.03784121  0.98370189  0.47885060     0.02000
C271        C  0.03850278  0.01265161  0.50375535     0.02000
C272        C  0.00880382  0.03598087  0.50621096     0.02000
C273        C  0.97952049  0.03170872  0.48247048     0.02000
C274        C  0.97179485  0.15257103  0.68404457     0.02900
C275        C  0.97050539  0.13616389  0.65004022    -0.13300
C276        C  0.00199965  0.12837410  0.63121735     0.00400
C277        C  0.03473123  0.14255128  0.64383729    -0.11800
C278        C  0.03640105  0.16213136  0.67574205     0.02900
C279        C  0.00569138  0.16384523  0.69725420    -0.11200
H280        H  0.94488887  0.12955956  0.63799820     0.08400
H281        H  0.05924377  0.13772596  0.62932614     0.06000
H282        H  0.00863431  0.17430779  0.72400225     0.05800
C283        C  0.20089422  0.04757762  0.63962234     0.02900
C284        C  0.21032586  0.01520056  0.65742746    -0.13300
C285        C  0.19352858  0.98237518  0.64757405     0.00400
C286        C  0.16692972  0.98265480  0.62086318    -0.11800
C287        C  0.15758079  0.01461904  0.60337417     0.02900
C288        C  0.17604171  0.04637323  0.61130048    -0.11200
H289        H  0.23010491  0.01564512  0.67883750     0.08400
H290        H  0.15330684  0.95779171  0.61381829     0.06000
H291        H  0.16913346  0.07090732  0.59702844     0.05800
C292        C  0.15994824  0.80913078  0.52091476     0.02900
C293        C  0.13888216  0.84064665  0.52140006    -0.13300
C294        C  0.14268328  0.86786057  0.49503754     0.00400
C295        C  0.16804592  0.86212178  0.46810169    -0.11800
C296        C  0.18211398  0.82793573  0.46232065     0.02900
C297        C  0.17811646  0.80121591  0.48878734    -0.11200
H298        H  0.11973665  0.84358783  0.54246719     0.08400
H299        H  0.17417561  0.88282179  0.44868126     0.06000
H300        H  0.18886423  0.77462678  0.48419922     0.05800
C301        C  0.82189200  0.16037498  0.53504366     0.02900
C302        C  0.81847975  0.18627450  0.50748406    -0.13300
C303        C  0.83223621  0.17932650  0.47292926     0.00400
C304        C  0.84681333  0.14498769  0.46687502    -0.11800
C305        C  0.85507346  0.12181162  0.49526615     0.02900
C306        C  0.84127253  0.12885874  0.52900270    -0.11200
H307        H  0.80594135  0.21165962  0.51374801     0.08400
H308        H  0.85471589  0.13677452  0.44041064     0.06000
H309        H  0.84741247  0.11100349  0.55122261     0.05800
C310        C  0.81622060  0.02980280  0.31890700     0.02900
C311        C  0.84467028  0.02938421  0.34366239    -0.13300
C312        C  0.85425240  0.99815438  0.36235440     0.00400
C313        C  0.83500083  0.96637678  0.35553553    -0.11800
C314        C  0.80704748  0.96441683  0.32959284     0.02900
C315        C  0.79840937  0.99682581  0.31076822    -0.11200
H316        H  0.85933839  0.05413048  0.34876432     0.08400
H317        H  0.84261069  0.94274958  0.37056213     0.06000
H318        H  0.77856274  0.99690681  0.28969760     0.05800
C319        C  0.97661157  0.80884457  0.33193543     0.02900
C320        C  0.97261359  0.84288003  0.34788775    -0.13300
C321        C  0.00030942  0.86817183  0.34788292     0.00400
C322        C  0.03005587  0.86259764  0.32628470    -0.11800
C323        C  0.03368629  0.83064980  0.30660798     0.02900
C324        C  0.00811970  0.80283064  0.31176578    -0.11200
H325        H  0.94817809  0.85015576  0.36124123     0.08400
H326        H  0.05057445  0.88326316  0.32523009     0.06000
H327        H  0.01322480  0.77663693  0.30050722     0.05800
O328        O  0.27155232  0.20358355  0.69672949    -0.80400
O329        O  0.24573970  0.30429096  0.69771558    -0.80400
O330        O  0.18160583  0.21268340  0.75892112    -0.80400
O331        O  0.33500048  0.29029245  0.76399889    -0.80400
O332        O  0.19064844  0.24793528  0.71232729    -0.80500
O333        O  0.32537128  0.25990159  0.71407216    -0.80400
O334        O  0.28556706  0.32176967  0.73680783    -0.80400
O335        O  0.22940349  0.18174933  0.73329495    -0.80400
C336        C  0.24564857  0.18175319  0.70311196     1.09300
C337        C  0.27167283  0.32488521  0.70603643     1.09200
C338        C  0.17122761  0.22423832  0.72876942     1.09300
C339        C  0.34507916  0.28105342  0.73293856     1.09200
O340        O  0.33295397  0.22498678  0.78172766    -0.80400
O341        O  0.18650122  0.27901137  0.78185374    -0.80500
O342        O  0.25129623  0.17599278  0.80497497    -0.80400
O343        O  0.28551722  0.33395290  0.80646609    -0.80400
O344        O  0.23501920  0.33071823  0.77281199    -0.80500
O345        O  0.28969286  0.16967514  0.76141864    -0.80400
O346        O  0.30212359  0.25765948  0.82118551    -0.80400
O347        O  0.20746136  0.23714833  0.81815927    -0.80400
Co348      Co  0.30182031  0.21788871  0.73839741     1.51500
Co349      Co  0.21895445  0.28654797  0.74065904     1.51700
Co350      Co  0.23103566  0.21486542  0.77642575     1.51600
Co351      Co  0.28500178  0.28935517  0.78063190     1.51500
O352        O  0.26141262  0.25095054  0.75543526    -1.42300
C353        C  0.32854848  0.23677984  0.81345785     1.09200
C354        C  0.18595634  0.26268175  0.81159772     1.09300
C355        C  0.27322106  0.15674015  0.78836950     1.09200
C356        C  0.25602584  0.34802589  0.79511215     1.09200
O357        O  0.78965884  0.19875515  0.27130308    -0.80400
O358        O  0.79117900  0.30371940  0.25177328    -0.80400
O359        O  0.75787071  0.21690504  0.17243089    -0.80400
O360        O  0.77925130  0.26433197  0.32679278    -0.80400
O361        O  0.79145955  0.25300898  0.20225752    -0.80500
O362        O  0.76750702  0.20655334  0.33930410    -0.80400
O363        O  0.75874396  0.33135981  0.28839815    -0.80400
O364        O  0.76032925  0.16863458  0.23004334    -0.80400
C365        C  0.78508253  0.16982393  0.25353542     1.09300
C366        C  0.78405518  0.33298508  0.26690811     1.09200
C367        C  0.78405506  0.23876028  0.17300489     1.09300
C368        C  0.78400611  0.23583404  0.34624400     1.09200
O369        O  0.70010256  0.22780597  0.32422610    -0.80400
O370        O  0.72272927  0.27673822  0.17255660    -0.80500
O371        O  0.68831694  0.18898572  0.24904790    -0.80400
O372        O  0.69140224  0.29547654  0.27518120    -0.80400
O373        O  0.71703036  0.32400463  0.23084376    -0.80500
O374        O  0.72326347  0.16725128  0.28955620    -0.80400
O375        O  0.71337411  0.28275469  0.33709581    -0.80400
O376        O  0.68619643  0.23616566  0.19321105    -0.80400
Co377      Co  0.74595159  0.21711786  0.29499137     1.51500
Co378      Co  0.75445965  0.28670778  0.21665508     1.51700
Co379      Co  0.72344324  0.20490852  0.21348800     1.51600
Co380      Co  0.73876723  0.28154684  0.29251854     1.51500
O381        O  0.73538526  0.24585948  0.24990200    -1.42300
C382        C  0.69670143  0.25488485  0.34501872     1.09200
C383        C  0.69665403  0.25516720  0.16741645     1.09300
C384        C  0.69859916  0.16193550  0.26657281     1.09200
C385        C  0.69287012  0.32259397  0.25487819     1.09200
O386        O  0.29735456  0.68536964  0.22222980    -0.80400
O387        O  0.18397478  0.70534495  0.27124800    -0.80400
O388        O  0.29143275  0.75510726  0.30428853    -0.80400
O389        O  0.19982091  0.73512338  0.15760032    -0.80400
O390        O  0.25342476  0.71125095  0.29956730    -0.80500
O391        O  0.23586638  0.68854329  0.16934368    -0.80400
O392        O  0.16826732  0.72357570  0.21761986    -0.80400
O393        O  0.31502212  0.73007750  0.25874699    -0.80400
C394        C  0.31899378  0.69841049  0.24593038     1.09300
C395        C  0.16262702  0.70420722  0.24496231     1.09200
C396        C  0.27833085  0.72692894  0.31750786     1.09300
C397        C  0.21086587  0.70345116  0.15063301     1.09200
O398        O  0.26288576  0.75637204  0.14959963    -0.80400
O399        O  0.20625755  0.75966816  0.31689512    -0.80500
O400        O  0.31000445  0.79978189  0.22986650    -0.80400
O401        O  0.16437648  0.79168975  0.19523912    -0.80400
O402        O  0.18026911  0.78113362  0.25280336    -0.80500
O403        O  0.31840394  0.75206445  0.19550021    -0.80400
O404        O  0.23687893  0.79886846  0.18140900    -0.80400
O405        O  0.24803299  0.79815627  0.29624170    -0.80400
Co406      Co  0.27608643  0.72020443  0.18695713     1.51500
Co407      Co  0.21990749  0.74459221  0.27212290     1.51700
Co408      Co  0.27641507  0.76831034  0.25627061     1.51600
Co409      Co  0.20427809  0.76194200  0.20326708     1.51500
O410        O  0.24324893  0.73820045  0.22574496    -1.42300
C411        C  0.25494580  0.78922477  0.15429303     1.09200
C412        C  0.22453825  0.78835163  0.32069453     1.09300
C413        C  0.32944479  0.78192198  0.20833631     1.09200
C414        C  0.16002407  0.79716029  0.22873063     1.09200
C415        C  0.09909220  0.83923880  0.29479672    -0.20600
C416        C  0.06546573  0.82643713  0.28267479    -0.07100
C417        C  0.06282216  0.81297283  0.24709389     0.13700
C418        C  0.09436979  0.80742761  0.22739377    -0.20600
C419        C  0.12813806  0.81683493  0.24155714    -0.07100
C420        C  0.12977739  0.83656355  0.27365525     0.13700
C421        C  0.16339991  0.85649343  0.28447218    -0.24000
H422        H  0.10164880  0.85149811  0.32099507     0.15000
H423        H  0.09282442  0.79327943  0.20204436     0.15000
C424        C  0.02723796  0.80467848  0.22938201    -0.23900
H425        H  0.16008341  0.87112817  0.31014698     0.05200
H426        H  0.17004294  0.87656694  0.26345365     0.08500
H427        H  0.18623407  0.83798898  0.28747274     0.08500
H428        H  0.00920414  0.82830153  0.23159966     0.08500
H429        H  0.01452623  0.78070737  0.24160288     0.08500
H430        H  0.03040520  0.79864395  0.20046159     0.05200
C431        C  0.80444828  0.06832961  0.26416491    -0.20600
C432        C  0.80696850  0.06538935  0.30167605    -0.07100
C433        C  0.80499107  0.09760735  0.32214799     0.13700
C434        C  0.80350861  0.13120522  0.30486685    -0.20600
C435        C  0.79904195  0.13440042  0.26763219    -0.07100
C436        C  0.79959344  0.10212088  0.24698688     0.13700
C437        C  0.79591651  0.10294762  0.20676754    -0.24000
H438        H  0.80635605  0.04406869  0.24816927     0.15000
H439        H  0.80281225  0.15506594  0.32130869     0.15000
C440        C  0.80202453  0.09788300  0.36247915    -0.23900
H441        H  0.80010265  0.07586679  0.19488171     0.05200
H442        H  0.81614474  0.12162155  0.19536637     0.08500
H443        H  0.76867797  0.11172572  0.19869897     0.08500
H444        H  0.82626710  0.11065675  0.37449035     0.08500
H445        H  0.79829742  0.07065934  0.37412886     0.08500
H446        H  0.77818361  0.11380702  0.37025334     0.05200
C447        C  0.80505386  0.23412506  0.44218655    -0.20600
C448        C  0.83046738  0.20608282  0.44245896    -0.07100
C449        C  0.85127112  0.20186924  0.41089616     0.13700
C450        C  0.83714405  0.21365159  0.37820013    -0.20600
C451        C  0.80781087  0.23669919  0.37759401    -0.07100
C452        C  0.79598953  0.25165662  0.41000594     0.13700
C453        C  0.77368570  0.28532359  0.41042765    -0.24000
H454        H  0.79122476  0.24182249  0.46622515     0.15000
H455        H  0.84905017  0.20502091  0.35327829     0.15000
C456        C  0.88911931  0.18812595  0.41105776    -0.23900
H457        H  0.74909535  0.28179432  0.39433673     0.05200
H458        H  0.78933155  0.30790222  0.39875422     0.08500
H459        H  0.76605097  0.29291835  0.43806951     0.08500
H460        H  0.89074108  0.16191519  0.39682956     0.08500
H461        H  0.89969698  0.18592211  0.43870092     0.08500
H462        H  0.90665244  0.20784495  0.39717204     0.05200
C463        C  0.23079439  0.82051457  0.41697665    -0.20600
C464        C  0.19425992  0.81968395  0.42554517    -0.07100
C465        C  0.16863786  0.81509866  0.39787080     0.13700
C466        C  0.18007573  0.81011171  0.36272797    -0.20600
C467        C  0.21660736  0.80869962  0.35392881    -0.07100
C468        C  0.24236023  0.81497102  0.38148729     0.13700
C469        C  0.28202790  0.81484489  0.37500136    -0.24000
H470        H  0.25038896  0.82522403  0.43809712     0.15000
H471        H  0.16014128  0.80435828  0.34218693     0.15000
C472        C  0.12898745  0.81397353  0.40549681    -0.23900
H473        H  0.29376132  0.84090942  0.38394309     0.05200
H474        H  0.28868635  0.81152605  0.34646918     0.08500
H475        H  0.29464662  0.79274505  0.39065858     0.08500
H476        H  0.12008491  0.84019822  0.41642107     0.08500
H477        H  0.12325492  0.79228118  0.42517718     0.08500
H478        H  0.11281622  0.80852973  0.38094496     0.05200
C479        C  0.24940011  0.09320764  0.65224582    -0.20600
C480        C  0.21293052  0.08358312  0.65260205    -0.07100
C481        C  0.18760574  0.10900717  0.66468219     0.13700
C482        C  0.19934873  0.14284024  0.67640206    -0.20600
C483        C  0.23569736  0.15207823  0.67815830    -0.07100
C484        C  0.26114648  0.12719531  0.66498971     0.13700
C485        C  0.30063555  0.13569134  0.66561192    -0.24000
H486        H  0.26871916  0.07388043  0.64255004     0.15000
H487        H  0.18000877  0.16151580  0.68656950     0.15000
C488        C  0.14825624  0.09989246  0.66790788    -0.23900
H489        H  0.31670027  0.11303017  0.65493991     0.05200
H490        H  0.30988607  0.14105967  0.69340007     0.08500
H491        H  0.30587541  0.15986106  0.64886036     0.08500
H492        H  0.14489878  0.07493554  0.68401704     0.08500
H493        H  0.13560842  0.09632008  0.64120513     0.08500
H494        H  0.13329057  0.12165104  0.68132122     0.05200
C495        C  0.08699610  0.16465230  0.71869560    -0.20600
C496        C  0.07096288  0.17850972  0.68789920    -0.07100
C497        C  0.08817475  0.20704056  0.66938401     0.13700
C498        C  0.12066783  0.22166784  0.68295348    -0.20600
C499        C  0.13696483  0.20787238  0.71419128    -0.07100
C500        C  0.11992736  0.17778488  0.73156270     0.13700
C501        C  0.13625694  0.15738011  0.76280435    -0.24000
H502        H  0.07398552  0.14232166  0.73220720     0.15000
H503        H  0.13330718  0.24395137  0.66910167     0.15000
C504        C  0.07180900  0.22269430  0.63580681    -0.23900
H505        H  0.12014293  0.13335545  0.77038063     0.05200
H506        H  0.13770946  0.17473217  0.78685347     0.08500
H507        H  0.16326753  0.14740528  0.75564904     0.08500
H508        H  0.04438749  0.23256238  0.64143447     0.08500
H509        H  0.07041525  0.20186750  0.61454524     0.08500
H510        H  0.08784635  0.24565894  0.62543467     0.05200
C511        C  0.01137232  0.95985137  0.39136189    -0.20600
C512        C  0.00677745  0.95104355  0.42757985    -0.07100
C513        C  0.99745141  0.91545434  0.43711465     0.13700
C514        C  0.99503426  0.88925604  0.41028007    -0.20600
C515        C  0.00001097  0.89806304  0.37398914    -0.07100
C516        C  0.00712745  0.93417401  0.36434352     0.13700
C517        C  0.00925845  0.94694456  0.32607714    -0.24000
H518        H  0.01843932  0.98712160  0.38404696     0.15000
H519        H  0.98941311  0.86158023  0.41784153     0.15000
C520        C  0.98935242  0.90429264  0.47501644    -0.23900
H521        H  0.98998890  0.96933652  0.32178429     0.05200
H522        H  0.00228089  0.92566689  0.30640724     0.08500
H523        H  0.03673281  0.95697624  0.32060657     0.08500
H524        H  0.96191686  0.89268560  0.47607225     0.08500
H525        H  0.99051390  0.92702411  0.49420500     0.08500
H526        H  0.00887762  0.88353376  0.48393662     0.05200
C527        C  0.91974371  0.98041675  0.44047046    -0.20600
C528        C  0.94897704  0.00181262  0.43037042    -0.07100
C529        C  0.94717654  0.02139725  0.39796778     0.13700
C530        C  0.91657376  0.01840775  0.37624610    -0.20600
C531        C  0.88618379  0.99871509  0.38705727    -0.07100
C532        C  0.88771656  0.98012040  0.42039227     0.13700
C533        C  0.85583976  0.96176394  0.43704601    -0.24000
H534        H  0.92115180  0.96567278  0.46554688     0.15000
H535        H  0.91651492  0.03211175  0.35059329     0.15000
C536        C  0.97678949  0.04588537  0.38535527    -0.23900
H537        H  0.85454599  0.96850852  0.46591046     0.05200
H538        H  0.85858543  0.93207196  0.43459700     0.08500
H539        H  0.83006107  0.97068504  0.42511958     0.08500
H540        H  0.00008834  0.04655016  0.40395177     0.08500
H541        H  0.96635082  0.07370319  0.38234832     0.08500
H542        H  0.98625321  0.03673447  0.35879416     0.05200
C543        C  0.91693211  0.11111695  0.47709923    -0.20600
C544        C  0.88532121  0.09664069  0.49132281    -0.07100
C545        C  0.88510164  0.06064933  0.50375510     0.13700
C546        C  0.91672500  0.04049789  0.50173054    -0.20600
C547        C  0.94766551  0.05489800  0.48591940    -0.07100
C548        C  0.94763273  0.09058824  0.47318451     0.13700
C549        C  0.97917928  0.10816943  0.45530171    -0.24000
H550        H  0.91803065  0.13910321  0.46932030     0.15000
H551        H  0.91707259  0.01307830  0.51182737     0.15000
C552        C  0.85220122  0.04253782  0.51850043    -0.23900
H553        H  0.97101076  0.11801469  0.42837042     0.05200
H554        H  0.00203466  0.08967935  0.45186720     0.08500
H555        H  0.98812519  0.13171840  0.47137641     0.08500
H556        H  0.84668993  0.01739875  0.50343154     0.08500
H557        H  0.82785255  0.05937833  0.51611826     0.08500
H558        H  0.85678052  0.03565048  0.54712237     0.05200
C559        C  0.98433409  0.05151339  0.56532375    -0.20600
C560        C  0.00605716  0.06172108  0.53664105    -0.07100
C561        C  0.02604148  0.09407878  0.53888120     0.13700
C562        C  0.02230012  0.11615846  0.56901913    -0.20600
C563        C  0.00116292  0.10566552  0.59828339    -0.07100
C564        C  0.98268613  0.07214409  0.59665165     0.13700
C565        C  0.96363694  0.05611497  0.62844471    -0.24000
H566        H  0.97007244  0.02601648  0.56385046     0.15000
H567        H  0.03699006  0.14141484  0.57005096     0.15000
C568        C  0.05238242  0.10567766  0.51080180    -0.23900
H569        H  0.95600975  0.02752134  0.62369085     0.05200
H570        H  0.93850508  0.07078218  0.63381342     0.08500
H571        H  0.98148040  0.05673284  0.65240943     0.08500
H572        H  0.05323483  0.08698821  0.48779559     0.08500
H573        H  0.07965274  0.10696565  0.52290453     0.08500
H574        H  0.04529847  0.13288342  0.50061593     0.05200
C575        C  0.06340340  0.00916573  0.56559831    -0.20600
C576        C  0.06922022  0.01671433  0.52927040    -0.07100
C577        C  0.10423145  0.02534992  0.51773684     0.13700
C578        C  0.13266832  0.02426849  0.54246098    -0.20600
C579        C  0.12681616  0.01553923  0.57842893    -0.07100
C580        C  0.09161486  0.00922477  0.59046190     0.13700
C581        C  0.08355279  0.00318750  0.62951434    -0.24000
H582        H  0.03676399  0.00194841  0.57435413     0.15000
H583        H  0.15964401  0.03019936  0.53361314     0.15000
C584        C  0.11256234  0.03609836  0.47982484    -0.23900
H585        H  0.05429912  0.00071407  0.63421024     0.05200
H586        H  0.09371922  0.02635730  0.64550176     0.08500
H587        H  0.09635358  0.97800477  0.63916731     0.08500
H588        H  0.08844092  0.03718183  0.46236958     0.08500
H589        H  0.13175354  0.01661777  0.46829339     0.08500
H590        H  0.12500453  0.06334113  0.47973005     0.05200
C591        C  0.06973950  0.93715244  0.51505188    -0.20600
C592        C  0.06548124  0.95467008  0.48189525    -0.07100
C593        C  0.08860333  0.94530693  0.45380441     0.13700
C594        C  0.11171437  0.91603308  0.45839418    -0.20600
C595        C  0.11793373  0.89991595  0.49234305    -0.07100
C596        C  0.09834840  0.91366127  0.52168179     0.13700
C597        C  0.10882160  0.90801390  0.56035693    -0.24000
H598        H  0.05232936  0.94413598  0.53696870     0.15000
H599        H  0.12514936  0.90672401  0.43471132     0.15000
C600        C  0.09111320  0.96616672  0.41926549    -0.23900
H601        H  0.10849898  0.93427501  0.57450155     0.05200
H602        H  0.13654280  0.89774452  0.56347757     0.08500
H603        H  0.08931848  0.88978827  0.57356481     0.08500
H604        H  0.07383699  0.99035416  0.41883064     0.08500
H605        H  0.08397515  0.94840426  0.39636955     0.08500
H606        H  0.11909596  0.97565368  0.41566575     0.05200
C607        C  0.68732601  0.26488995  0.44307915    -0.20600
C608        C  0.66311387  0.29404990  0.44447438    -0.07100
C609        C  0.63942495  0.29753768  0.41423943     0.13700
C610        C  0.64849166  0.28165196  0.38128478    -0.20600
C611        C  0.67577604  0.25597696  0.37895938    -0.07100
C612        C  0.69152237  0.24419302  0.41156007     0.13700
C613        C  0.71316639  0.21016446  0.41309021    -0.24000
H614        H  0.70371996  0.25815595  0.46607816     0.15000
H615        H  0.63407679  0.28941299  0.35713708     0.15000
C616        C  0.60284691  0.31439186  0.41610189    -0.23900
H617        H  0.72342264  0.20457976  0.44056341     0.05200
H618        H  0.73620896  0.21205231  0.39522788     0.08500
H619        H  0.69616246  0.18706475  0.40453048     0.08500
H620        H  0.60213226  0.33990953  0.40049739     0.08500
H621        H  0.59451734  0.31885538  0.44407390     0.08500
H622        H  0.58264456  0.29559051  0.40447458     0.05200
C623        C  0.27505341  0.41481899  0.65515450    -0.20600
C624        C  0.30818748  0.42821593  0.66806672    -0.07100
C625        C  0.33124674  0.40446422  0.68642777     0.13700
C626        C  0.31980224  0.36924122  0.69389464    -0.20600
C627        C  0.28541734  0.35625149  0.68424916    -0.07100
C628        C  0.26337104  0.37910555  0.66298799     0.13700
C629        C  0.22714778  0.36671077  0.64985398    -0.24000
H630        H  0.25797393  0.43258229  0.63955686     0.15000
H631        H  0.33714864  0.35262803  0.71010205     0.15000
C632        C  0.36781086  0.41661169  0.69924256    -0.23900
H633        H  0.21362392  0.38779231  0.63350448     0.05200
H634        H  0.20961129  0.36019830  0.67277719     0.08500
H635        H  0.23024037  0.34233623  0.63296277     0.08500
H636        H  0.36509244  0.43991013  0.71763462     0.08500
H637        H  0.38442241  0.42467019  0.67605337     0.08500
H638        H  0.38222145  0.39490373  0.71387125     0.05200
C639        C  0.38417489  0.69232589  0.23819668    -0.20600
C640        C  0.35323331  0.68075750  0.25616187    -0.07100
C641        C  0.35749078  0.66487415  0.29003345     0.13700
C642        C  0.39096850  0.66647399  0.30749240    -0.20600
C643        C  0.42244205  0.67949409  0.29058485    -0.07100
C644        C  0.41869972  0.69068562  0.25415510     0.13700
C645        C  0.45012341  0.70095960  0.23121274    -0.24000
H646        H  0.38107985  0.70453476  0.21196391     0.15000
H647        H  0.39162090  0.65796572  0.33518914     0.15000
C648        C  0.32715517  0.64558994  0.30822977    -0.23900
H649        H  0.44272805  0.70059469  0.20232336     0.05200
H650        H  0.47238714  0.68149848  0.23496159     0.08500
H651        H  0.45890094  0.72886851  0.23734460     0.08500
H652        H  0.30150637  0.64796977  0.29314908     0.08500
H653        H  0.32367362  0.65602731  0.33567170     0.08500
H654        H  0.33380919  0.61651466  0.31046767     0.05200
C655        C  0.66766672  0.42130466  0.26233717    -0.20600
C656        C  0.67095675  0.42533264  0.29974638    -0.07100
C657        C  0.67419250  0.39433685  0.32147038     0.13700
C658        C  0.67546870  0.36051812  0.30534118    -0.20600
C659        C  0.67622928  0.35641640  0.26791639    -0.07100
C660        C  0.67009364  0.38699740  0.24611096     0.13700
C661        C  0.66518267  0.38328400  0.20619902    -0.24000
H662        H  0.66333268  0.44501755  0.24587590     0.15000
H663        H  0.67894364  0.33735397  0.32252153     0.15000
C664        C  0.67869703  0.39665401  0.36169199    -0.23900
H665        H  0.65936914  0.40969982  0.19337916     0.05200
H666        H  0.64232484  0.36486249  0.20048433     0.08500
H667        H  0.68957055  0.37217416  0.19373589     0.08500
H668        H  0.65413312  0.40725984  0.37423313     0.08500
H669        H  0.70174097  0.41449386  0.36841237     0.08500
H670        H  0.68396530  0.36983207  0.37394444     0.05200
C671        C  0.26836295  0.69624697  0.37597970    -0.20600
C672        C  0.29140122  0.71544348  0.35327633    -0.07100
C673        C  0.32549378  0.72693925  0.36667058     0.13700
C674        C  0.33504160  0.71923867  0.40207076    -0.20600
C675        C  0.31191858  0.70065129  0.42473995    -0.07100
C676        C  0.27832392  0.68863831  0.41163955     0.13700
C677        C  0.25349649  0.66706877  0.43498102    -0.24000
H678        H  0.24230775  0.68773409  0.36602693     0.15000
H679        H  0.36116607  0.72738124  0.41223304     0.15000
C680        C  0.35257943  0.74722550  0.34435933    -0.23900
H681        H  0.22865013  0.65913075  0.42035316     0.05200
H682        H  0.24572055  0.68333613  0.45856112     0.08500
H683        H  0.26711994  0.64211960  0.44426304     0.08500
H684        H  0.34320247  0.77501695  0.33880615     0.08500
H685        H  0.35727990  0.73303983  0.31882279     0.08500
H686        H  0.37890151  0.74974226  0.35828660     0.05200
C687        C  0.39951435  0.31717447  0.74542919    -0.20600
C688        C  0.37932133  0.29704544  0.72020847    -0.07100
C689        C  0.39132666  0.29542192  0.68441916     0.13700
C690        C  0.42268592  0.31419126  0.67503769    -0.20600
C691        C  0.44200667  0.33471277  0.70033162    -0.07100
C692        C  0.43010827  0.33645590  0.73587524     0.13700
C693        C  0.44828705  0.36020549  0.76343479    -0.24000
H694        H  0.39091946  0.31882539  0.77299254     0.15000
H695        H  0.43214985  0.31310026  0.64770831     0.15000
C696        C  0.37122793  0.27479242  0.65587062    -0.23900
H697        H  0.43362711  0.36033415  0.78917432     0.05200
H698        H  0.44944475  0.38839482  0.75341114     0.08500
H699        H  0.47578081  0.35052610  0.76923897     0.08500
H700        H  0.34379199  0.28589473  0.65265594     0.08500
H701        H  0.36977433  0.24582048  0.66328110     0.08500
H702        H  0.38461169  0.27673003  0.62950029     0.05200
C703        C  0.41726427  0.56263048  0.46400222    -0.20600
C704        C  0.44549964  0.56310087  0.48886835    -0.07100
C705        C  0.44835945  0.59154881  0.51383498     0.13700
C706        C  0.42298594  0.61909687  0.51284201    -0.20600
C707        C  0.39368831  0.61797848  0.48897862    -0.07100
C708        C  0.39022473  0.58853039  0.46490714     0.13700
C709        C  0.35767828  0.58179920  0.44147784    -0.24000
H710        H  0.41523751  0.54063254  0.44499339     0.15000
H711        H  0.42605328  0.64156199  0.53117503     0.15000
C712        C  0.47749017  0.59377723  0.54200153    -0.23900
H713        H  0.34833347  0.55358126  0.44514552     0.05200
H714        H  0.36478543  0.58577330  0.41293218     0.08500
H715        H  0.33454557  0.59898123  0.44819761     0.08500
H716        H  0.49232546  0.61958809  0.53924868     0.08500
H717        H  0.49700949  0.57144154  0.54040217     0.08500
H718        H  0.46522597  0.59309686  0.56895990     0.05200
C719        C  0.44815846  0.51593866  0.57693715    -0.20600
C720        C  0.43962968  0.50623637  0.54164397    -0.07100
C721        C  0.40386830  0.49653757  0.53281874     0.13700
C722        C  0.37770522  0.49731198  0.55951581    -0.20600
C723        C  0.38660881  0.50601484  0.59504128    -0.07100
C724        C  0.42264134  0.51434056  0.60401111     0.13700
C725        C  0.43592234  0.51923268  0.64194371    -0.24000
H726        H  0.47547415  0.52333853  0.58379950     0.15000
H727        H  0.35028572  0.49006176  0.55277304     0.15000
C728        C  0.39248789  0.48400965  0.49606060    -0.23900
H729        H  0.45867268  0.50062727  0.64709654     0.05200
H730        H  0.41543621  0.51280402  0.66219193     0.08500
H731        H  0.44538846  0.54739476  0.64576685     0.08500
H732        H  0.38089405  0.45646562  0.49791033     0.08500
H733        H  0.41496417  0.48295410  0.47695574     0.08500
H734        H  0.37166070  0.50238524  0.48514653     0.05200
C735        C  0.48258524  0.55305600  0.40192196    -0.20600
C736        C  0.49940717  0.55982952  0.43481198    -0.07100
C737        C  0.51685061  0.59305421  0.44080113     0.13700
C738        C  0.51395030  0.62002751  0.41484490    -0.20600
C739        C  0.49713744  0.61338440  0.38160589    -0.07100
C740        C  0.48368343  0.57833765  0.37425449     0.13700
C741        C  0.47238090  0.56568258  0.33745601    -0.24000
H742        H  0.46940967  0.52740522  0.39743958     0.15000
H743        H  0.52502429  0.64643483  0.42076410     0.15000
C744        C  0.53889331  0.60087229  0.47388749    -0.23900
H745        H  0.48663152  0.54028221  0.33106141     0.05200
H746        H  0.47938360  0.58502808  0.31599425     0.08500
H747        H  0.44308992  0.56035945  0.33686169     0.08500
H748        H  0.56686921  0.60701760  0.46601205     0.08500
H749        H  0.53981193  0.57789409  0.49285436     0.08500
H750        H  0.52786590  0.62472630  0.48777686     0.05200
C751        C  0.58487753  0.51925700  0.44273397    -0.20600
C752        C  0.55168504  0.50318678  0.43535026    -0.07100
C753        C  0.54532734  0.48725656  0.40159662     0.13700
C754        C  0.57177375  0.48961286  0.37543034    -0.20600
C755        C  0.60571936  0.50458919  0.38300175    -0.07100
C756        C  0.61266707  0.51841709  0.41784998     0.13700
C757        C  0.64958498  0.52976484  0.43037762    -0.24000
H758        H  0.58941330  0.53159542  0.46865864     0.15000
H759        H  0.56612203  0.47845319  0.34915849     0.15000
C760        C  0.51151458  0.46675405  0.39251266    -0.23900
H761        H  0.65056291  0.53411000  0.45980374     0.05200
H762        H  0.65754094  0.55557111  0.41779934     0.08500
H763        H  0.66932164  0.50839046  0.42414676     0.08500
H764        H  0.49185375  0.46677495  0.41454192     0.08500
H765        H  0.51832041  0.43829768  0.38649658     0.08500
H766        H  0.49859522  0.47872867  0.36840096     0.05200
C767        C  0.57925272  0.39319425  0.48670659    -0.20600
C768        C  0.61290311  0.40501040  0.49925773    -0.07100
C769        C  0.61707916  0.44143198  0.50983534     0.13700
C770        C  0.58716285  0.46436955  0.50864764    -0.20600
C771        C  0.55400587  0.45259874  0.49480404    -0.07100
C772        C  0.55024705  0.41665078  0.48315088     0.13700
C773        C  0.51649326  0.40213202  0.46607990    -0.24000
H774        H  0.57551569  0.36526914  0.47920224     0.15000
H775        H  0.58982148  0.49197005  0.51777797     0.15000
C776        C  0.65304912  0.45690346  0.52036456    -0.23900
H777        H  0.50599183  0.37951740  0.48244010     0.05200
H778        H  0.52260610  0.39181856  0.43893405     0.08500
H779        H  0.49537031  0.42275539  0.46306088     0.08500
H780        H  0.67270864  0.45157772  0.49891044     0.08500
H781        H  0.66274838  0.44505605  0.54586825     0.08500
H782        H  0.65169318  0.48656508  0.52424108     0.05200
C783        C  0.52209078  0.46683762  0.57664959    -0.20600
C784        C  0.49880527  0.45595727  0.54907856    -0.07100
C785        C  0.47585578  0.42612843  0.55421539     0.13700
C786        C  0.47809958  0.40691257  0.58633200    -0.20600
C787        C  0.50088345  0.41814617  0.61441710    -0.07100
C788        C  0.52212686  0.44953126  0.60988762     0.13700
C789        C  0.54331252  0.46705493  0.63978260    -0.24000
H790        H  0.53852729  0.49073323  0.57299194     0.15000
H791        H  0.46177913  0.38287786  0.58934543     0.15000
C792        C  0.44839738  0.41407436  0.52692907    -0.23900
H793        H  0.53569216  0.49590970  0.64175128     0.05200
H794        H  0.57238261  0.46537777  0.63400466     0.08500
H795        H  0.53806028  0.45499083  0.66635844     0.08500
H796        H  0.45345069  0.38564799  0.51931687     0.08500
H797        H  0.44857778  0.43071681  0.50234250     0.08500
H798        H  0.42127887  0.41575876  0.53875520     0.05200
C799        C  0.81152462  0.31091479  0.10583195    -0.20600
C800        C  0.80805060  0.29307374  0.07298903    -0.07100
C801        C  0.79978440  0.25555299  0.07341533     0.13700
C802        C  0.79248039  0.23831379  0.10632933    -0.20600
C803        C  0.79652263  0.25640507  0.13920561    -0.07100
C804        C  0.80782672  0.29317640  0.13853938     0.13700
C805        C  0.81480804  0.31545586  0.17163992    -0.24000
H806        H  0.81675489  0.33966967  0.10611367     0.15000
H807        H  0.78428184  0.21023041  0.10631959     0.15000
C808        C  0.79992473  0.23224620  0.04041760    -0.23900
H809        H  0.82598989  0.34252298  0.16533689     0.05200
H810        H  0.83477859  0.30186929  0.18917270     0.08500
H811        H  0.78932711  0.32019822  0.18561643     0.08500
H812        H  0.81186659  0.24583788  0.01700881     0.08500
H813        H  0.77215393  0.22347132  0.03381707     0.08500
H814        H  0.81654957  0.20796484  0.04555981     0.05200
C815        C  0.12724491  0.24652236  0.83593711    -0.20600
C816        C  0.15550635  0.27147470  0.83475274    -0.07100
C817        C  0.14831145  0.30795007  0.84230924     0.13700
C818        C  0.11284191  0.31945034  0.84546215    -0.20600
C819        C  0.08387979  0.29510097  0.84317957    -0.07100
C820        C  0.09156419  0.25769753  0.84062655     0.13700
C821        C  0.06329325  0.22872689  0.84276969    -0.24000
H822        H  0.13267410  0.21837213  0.83076591     0.15000
H823        H  0.10785424  0.34804686  0.84865330     0.15000
C824        C  0.17767233  0.33561170  0.84552806    -0.23900
H825        H  0.07095358  0.20898094  0.86386482     0.05200
H826        H  0.06124306  0.21445476  0.81670129     0.08500
H827        H  0.03661016  0.23921383  0.84995407     0.08500
H828        H  0.17477159  0.35583917  0.82375426     0.08500
H829        H  0.20458195  0.32313951  0.84420698     0.08500
H830        H  0.17579900  0.34953483  0.87175036     0.05200
C831        C  0.84068138  0.40734885  0.22414529    -0.20600
C832        C  0.81365989  0.43047177  0.21082031    -0.07100
C833        C  0.77746832  0.42206353  0.21867574     0.13700
C834        C  0.76967717  0.39237813  0.24056628    -0.20600
C835        C  0.79619877  0.36815270  0.25191429    -0.07100
C836        C  0.83229881  0.37601456  0.24404983     0.13700
C837        C  0.86192872  0.35200885  0.25758692    -0.24000
H838        H  0.86848001  0.41372802  0.21882128     0.15000
H839        H  0.74205672  0.38662809  0.24651708     0.15000
C840        C  0.74589980  0.44167376  0.20232408    -0.23900
H841        H  0.88870946  0.36252225  0.25002579     0.05200
H842        H  0.85895019  0.32454315  0.24623597     0.08500
H843        H  0.86089454  0.35032196  0.28725320     0.08500
H844        H  0.75320397  0.46133520  0.18134807     0.08500
H845        H  0.73065563  0.45552212  0.22360947     0.08500
H846        H  0.72811605  0.42193945  0.18873384     0.05200
C847        C  0.06452315  0.69538706  0.23616367    -0.20600
C848        C  0.06167586  0.66371933  0.21547013    -0.07100
C849        C  0.09054418  0.63875991  0.21840967     0.13700
C850        C  0.12435609  0.65081663  0.23046790    -0.20600
C851        C  0.12804346  0.68467156  0.24635501    -0.07100
C852        C  0.09674583  0.70424391  0.25396478     0.13700
C853        C  0.09753149  0.73376332  0.28146713    -0.24000
H854        H  0.04234077  0.71393355  0.23790099     0.15000
H855        H  0.14772515  0.63389925  0.22728347     0.15000
C856        C  0.08600648  0.59912925  0.21168951    -0.23900
H857        H  0.07095090  0.74667394  0.28419946     0.05200
H858        H  0.11759443  0.75441218  0.27459701     0.08500
H859        H  0.10511300  0.72214075  0.30787199     0.08500
H860        H  0.10197332  0.59089902  0.18817752     0.08500
H861        H  0.05738871  0.59194176  0.20805087     0.08500
H862        H  0.09562786  0.58383053  0.23548269     0.05200
C863        C  0.21004208  0.43916080  0.79441205    -0.20600
C864        C  0.20769417  0.44616731  0.83102874    -0.07100
C865        C  0.22691276  0.42418070  0.85554092     0.13700
C866        C  0.24543317  0.39375742  0.84286727    -0.20600
C867        C  0.24459713  0.38465295  0.80640475    -0.07100
C868        C  0.22821125  0.40887788  0.78177599     0.13700
C869        C  0.23027477  0.40360380  0.74198360    -0.24000
H870        H  0.19615131  0.45666997  0.77561928     0.15000
H871        H  0.25852887  0.37577330  0.86174310     0.15000
C872        C  0.22794950  0.43273714  0.89494165    -0.23900
H873        H  0.21833668  0.42650463  0.72686426     0.05200
H874        H  0.21557791  0.37896059  0.73376688     0.08500
H875        H  0.25884299  0.40186011  0.73454473     0.08500
H876        H  0.20075094  0.43075093  0.90643279     0.08500
H877        H  0.23852281  0.46047394  0.89898842     0.08500
H878        H  0.24552554  0.41377974  0.90995862     0.05200
C879        C  0.14677873  0.68278469  0.07520022    -0.20600
C880        C  0.16977953  0.68365310  0.04560341    -0.07100
C881        C  0.20728127  0.68497549  0.05203797     0.13700
C882        C  0.22047842  0.68711964  0.08747564    -0.20600
C883        C  0.19723678  0.68784945  0.11675175    -0.07100
C884        C  0.15999037  0.68472577  0.11045651     0.13700
C885        C  0.13407303  0.68318044  0.14105668    -0.24000
H886        H  0.11812256  0.68055613  0.07065208     0.15000
H887        H  0.24899166  0.69058612  0.09222535     0.15000
C888        C  0.23361436  0.68444267  0.02185266    -0.23900
H889        H  0.10607515  0.67899878  0.13157661     0.05200
H890        H  0.13487129  0.70869262  0.15645403     0.08500
H891        H  0.14132449  0.66031297  0.15883520     0.08500
H892        H  0.23125274  0.70983597  0.00644836     0.08500
H893        H  0.22839892  0.66088216  0.00421923     0.08500
H894        H  0.26169091  0.68265171  0.03182196     0.05200
C895        C  0.03578833  0.49940223  0.91240140    -0.20600
C896        C  0.04260115  0.48388990  0.94588605    -0.07100
C897        C  0.07462936  0.46449338  0.95187909     0.13700
C898        C  0.10097209  0.46499318  0.92551822    -0.20600
C899        C  0.09533621  0.48326273  0.89303915    -0.07100
C900        C  0.06114705  0.49794078  0.88530157     0.13700
C901        C  0.05051344  0.51215052  0.84888264    -0.24000
H902        H  0.01065844  0.51317642  0.90754803     0.15000
H903        H  0.12675326  0.45278552  0.93126028     0.15000
C904        C  0.08223028  0.44369528  0.98577304    -0.23900
H905        H  0.02564979  0.49830646  0.83967522     0.05200
H906        H  0.07116078  0.50715867  0.82835756     0.08500
H907        H  0.04531339  0.54156576  0.85051437     0.08500
H908        H  0.08521637  0.41467807  0.97919846     0.08500
H909        H  0.06070935  0.44627697  0.00581032     0.08500
H910        H  0.10768557  0.45321284  0.99809078     0.05200
C911        C  0.03723318  0.57396630  0.96069778    -0.20600
C912        C  0.04444846  0.54843464  0.98759570    -0.07100
C913        C  0.07840318  0.54850315  0.00436960     0.13700
C914        C  0.10387281  0.57425892  0.99416313    -0.20600
C915        C  0.09537492  0.60280420  0.97050061    -0.07100
C916        C  0.06146345  0.60204715  0.95294755     0.13700
C917        C  0.04941434  0.63135688  0.92761599    -0.24000
H918        H  0.01173620  0.57271508  0.94662719     0.15000
H919        H  0.13004315  0.57347738  0.00699836     0.15000
C920        C  0.08834943  0.52284123  0.03411132    -0.23900
H921        H  0.02090060  0.62788837  0.91948541     0.05200
H922        H  0.06539343  0.63056627  0.90279360     0.08500
H923        H  0.05201399  0.65811758  0.94068472     0.08500
H924        H  0.09375697  0.53841807  0.05896370     0.08500
H925        H  0.06700477  0.50292571  0.03996297     0.08500
H926        H  0.11305986  0.50810838  0.02698140     0.05200
C927        C  0.01074833  0.54478155  0.08387567    -0.20600
C928        C  0.99727767  0.55388454  0.05006873    -0.07100
C929        C  0.99000741  0.59038948  0.04202054     0.13700
C930        C  0.99808647  0.61690859  0.06760812    -0.20600
C931        C  0.01024502  0.60776387  0.10224886    -0.07100
C932        C  0.01594100  0.57080252  0.11046681     0.13700
C933        C  0.02576794  0.55777419  0.14739067    -0.24000
H934        H  0.01659239  0.51676358  0.08972964     0.15000
H935        H  0.99279196  0.64489928  0.06108098     0.15000
C936        C  0.97188807  0.60222014  0.00781016    -0.23900
H937        H  0.02386417  0.52794996  0.14968791     0.05200
H938        H  0.00743297  0.56940961  0.16751709     0.08500
H939        H  0.05393118  0.56512626  0.15308857     0.08500
H940        H  0.94626374  0.61576599  0.01421635     0.08500
H941        H  0.96557076  0.57940323  0.98972446     0.08500
H942        H  0.98929158  0.62170686  0.99349185     0.05200
C943        C  0.88028638  0.51165804  0.08236252    -0.20600
C944        C  0.88733611  0.49239134  0.11420598    -0.07100
C945        C  0.92184237  0.47698167  0.11906156     0.13700
C946        C  0.94724822  0.48010382  0.09156914    -0.20600
C947        C  0.93988239  0.49935614  0.05995812    -0.07100
C948        C  0.90614574  0.51595374  0.05571154     0.13700
C949        C  0.89630826  0.53819891  0.02332045    -0.24000
H950        H  0.85419529  0.52379380  0.07816804     0.15000
H951        H  0.97306759  0.46712827  0.09459095     0.15000
C952        C  0.93295426  0.45851065  0.15339687    -0.23900
H953        H  0.87178804  0.52695046  0.01043683     0.05200
H954        H  0.91770153  0.53890931  0.00302434     0.08500
H955        H  0.89080578  0.56632075  0.03175522     0.08500
H956        H  0.91865672  0.43249609  0.15639027     0.08500
H957        H  0.92743511  0.47624106  0.17660876     0.08500
H958        H  0.96205788  0.45233157  0.15380543     0.05200
C959        C  0.90131918  0.44944295  0.99378734    -0.20600
C960        C  0.93413304  0.44073205  0.00992316    -0.07100
C961        C  0.93795537  0.40767959  0.02826863     0.13700
C962        C  0.90955350  0.38296938  0.02758217    -0.20600
C963        C  0.87641175  0.39157424  0.01146776    -0.07100
C964        C  0.87179372  0.42630642  0.99614367     0.13700
C965        C  0.83607076  0.44085872  0.98373417    -0.24000
H966        H  0.89841110  0.47509227  0.98017068     0.15000
H967        H  0.91355965  0.35670557  0.03970462     0.15000
C968        C  0.97125548  0.39777513  0.04912032    -0.23900
H969        H  0.83137380  0.46743718  0.99650677     0.05200
H970        H  0.81322360  0.42349327  0.99139434     0.08500
H971        H  0.83610332  0.44448294  0.95421597     0.08500
H972        H  0.96426265  0.39352664  0.07765391     0.08500
H973        H  0.99226085  0.41895121  0.04808417     0.08500
H974        H  0.98250010  0.37232594  0.03846782     0.05200
C975        C  0.00560190  0.40043505  0.96446404    -0.20600
C976        C  0.98715729  0.43179024  0.95480038    -0.07100
C977        C  0.97152584  0.43472990  0.92043802     0.13700
C978        C  0.97792231  0.40770319  0.89537745    -0.20600
C979        C  0.99768233  0.37671565  0.90445515    -0.07100
C980        C  0.00969748  0.37208359  0.94029009     0.13700
C981        C  0.02586113  0.33763621  0.95452371    -0.24000
H982        H  0.01734489  0.39818463  0.99095632     0.15000
H983        H  0.96797348  0.41138283  0.86825058     0.15000
C984        C  0.94859787  0.46622169  0.90916028    -0.23900
H985        H  0.01128259  0.32909314  0.97891746     0.05200
H986        H  0.05444164  0.34226822  0.96173910     0.08500
H987        H  0.02375893  0.31489933  0.93544874     0.08500
H988        H  0.94577093  0.48669685  0.93052573     0.08500
H989        H  0.92136591  0.45631101  0.90194982     0.08500
H990        H  0.96033418  0.47950658  0.88532078     0.05200
C991        C  0.26803304  0.82623853  0.06211388    -0.20600
C992        C  0.30539412  0.83225809  0.06299618    -0.07100
C993        C  0.32300666  0.83263004  0.09709235     0.13700
C994        C  0.30324064  0.82501010  0.12806461    -0.20600
C995        C  0.26728954  0.81450099  0.12633950    -0.07100
C996        C  0.24908641  0.81648012  0.09313107     0.13700
C997        C  0.21005089  0.80634436  0.09018152    -0.24000
H998        H  0.25386349  0.82714221  0.03666584     0.15000
H999        H  0.31684604  0.82415005  0.15362908     0.15000
C1000       C  0.36302499  0.83742465  0.10168685    -0.23900
H1001       H  0.19958513  0.80987930  0.06245563     0.05200
H1002       H  0.19414163  0.82364766  0.10827392     0.08500
H1003       H  0.20625188  0.77765800  0.09780636     0.08500
H1004       H  0.37086695  0.86597662  0.09811478     0.08500
H1005       H  0.37765648  0.81960461  0.08302252     0.08500
H1006       H  0.37205770  0.83063185  0.12918014     0.05200
C1007       C  0.42457657  0.82226400  0.20426872    -0.20600
C1008       C  0.43892325  0.80103630  0.17668852    -0.07100
C1009       C  0.41734948  0.77522090  0.15958760     0.13700
C1010       C  0.38183488  0.77133124  0.16995259    -0.20600
C1011       C  0.36676037  0.79198133  0.19783693    -0.07100
C1012       C  0.38877972  0.81769333  0.21550758     0.13700
C1013       C  0.37523050  0.83975778  0.24628577    -0.24000
H1014       H  0.44152329  0.84236032  0.21704766     0.15000
H1015       H  0.36571997  0.75167854  0.15558349     0.15000
C1016       C  0.43147349  0.75230885  0.12955493    -0.23900
H1017       H  0.39625423  0.85817728  0.25703658     0.05200
H1018       H  0.36671756  0.82164022  0.26835736     0.08500
H1019       H  0.35222528  0.85645898  0.23725274     0.08500
H1020       H  0.45419371  0.73569762  0.13943409     0.08500
H1021       H  0.44070745  0.76985924  0.10734059     0.08500
H1022       H  0.41069703  0.73371019  0.11865773     0.05200
C1023       C  0.38782463  0.25270960  0.83996365    -0.20600
C1024       C  0.35900049  0.22812517  0.83826340    -0.07100
C1025       C  0.36668394  0.19155496  0.84542769     0.13700
C1026       C  0.40218910  0.17965845  0.84866981    -0.20600
C1027       C  0.43149896  0.20356994  0.84779894    -0.07100
C1028       C  0.42373402  0.24110024  0.84546230     0.13700
C1029       C  0.45273721  0.26921489  0.84905651    -0.24000
H1030       H  0.38262006  0.28088755  0.83424559     0.15000
H1031       H  0.40681482  0.15092669  0.85123552     0.15000
C1032       C  0.33773044  0.16386839  0.84824878    -0.23900
H1033       H  0.44135965  0.29682457  0.85028188     0.05200
H1034       H  0.47075589  0.26850774  0.82572683     0.08500
H1035       H  0.46836364  0.26457382  0.87408721     0.08500
H1036       H  0.31101402  0.17653617  0.84663741     0.08500
H1037       H  0.33979815  0.14980478  0.87445858     0.08500
H1038       H  0.34104124  0.14386228  0.82652994     0.05200
C1039       C  0.28931685  0.07090317  0.84284890    -0.20600
C1040       C  0.31065815  0.05178561  0.81869396    -0.07100
C1041       C  0.31382060  0.06424267  0.78318830     0.13700
C1042       C  0.29847591  0.09721658  0.77367150    -0.20600
C1043       C  0.28027115  0.11854030  0.79866890    -0.07100
C1044       C  0.27311846  0.10377802  0.83300273     0.13700
C1045       C  0.24918538  0.12227485  0.85953770    -0.24000
H1046       H  0.28601368  0.06040128  0.86972786     0.15000
H1047       H  0.30230408  0.10713481  0.74671960     0.15000
C1048       C  0.33520136  0.04403261  0.75568827    -0.23900
H1049       H  0.24618444  0.10613122  0.88442005     0.05200
H1050       H  0.22208599  0.12588086  0.84755693     0.08500
H1051       H  0.26027797  0.14888316  0.86734897     0.08500
H1052       H  0.32284008  0.01729008  0.75048391     0.08500
H1053       H  0.36314927  0.04039550  0.76545119     0.08500
H1054       H  0.33618364  0.05866128  0.72972571     0.05200
C1055       C  0.69585707  0.20577317  0.12326355    -0.20600
C1056       C  0.68872636  0.24229187  0.13024463    -0.07100
C1057       C  0.67903972  0.26489214  0.10115239     0.13700
C1058       C  0.67354169  0.24958471  0.06668744    -0.20600
C1059       C  0.68040952  0.21278698  0.06034809    -0.07100
C1060       C  0.69471324  0.19180753  0.08854575     0.13700
C1061       C  0.70993755  0.15475079  0.08232594    -0.24000
H1062       H  0.70450872  0.18817175  0.14481098     0.15000
H1063       H  0.66328823  0.26611121  0.04496500     0.15000
C1064       C  0.67339613  0.30459662  0.10673135    -0.23900
H1065       H  0.73648223  0.15239723  0.09582485     0.05200
H1066       H  0.71423587  0.14913852  0.05351944     0.08500
H1067       H  0.69142231  0.13414177  0.09297116     0.08500
H1068       H  0.69872146  0.31728925  0.11627575     0.08500
H1069       H  0.65223668  0.30883299  0.12696766     0.08500
H1070       H  0.66506545  0.31825524  0.08151407     0.05200
C1071       C  0.69021069  0.12375537  0.21321153    -0.20600
C1072       C  0.69218762  0.12544034  0.25075893    -0.07100
C1073       C  0.69191095  0.09273937  0.27033426     0.13700
C1074       C  0.68793073  0.05959235  0.25180566    -0.20600
C1075       C  0.68625521  0.05828061  0.21401823    -0.07100
C1076       C  0.68948210  0.09101541  0.19481296     0.13700
C1077       C  0.69463744  0.09276067  0.15489767    -0.24000
H1078       H  0.69198923  0.14834766  0.19759192     0.15000
H1079       H  0.68609149  0.03467992  0.26688558     0.15000
C1080       C  0.69504549  0.09274573  0.31052150    -0.23900
H1081       H  0.71800238  0.11032411  0.14894809     0.05200
H1082       H  0.67018298  0.10422958  0.14223973     0.08500
H1083       H  0.70063949  0.06631752  0.14268179     0.08500
H1084       H  0.67326692  0.10925918  0.32205772     0.08500
H1085       H  0.72138684  0.10406135  0.31886296     0.08500
H1086       H  0.69302216  0.06504126  0.32168783     0.05200
C1087       C  0.44560100  0.98370325  0.88138133    -0.20600
C1088       C  0.41281161  0.99949905  0.89066842    -0.07100
C1089       C  0.40836776  0.01268698  0.92591843     0.13700
C1090       C  0.43691802  0.00992954  0.95050408    -0.20600
C1091       C  0.46873873  0.99221940  0.94159483    -0.07100
C1092       C  0.47305369  0.97877430  0.90660478     0.13700
C1093       C  0.50551312  0.95798805  0.89511363    -0.24000
H1094       H  0.44918978  0.97339489  0.85449495     0.15000
H1095       H  0.43402930  0.02059976  0.97731038     0.15000
C1096       C  0.37317619  0.02751100  0.93867152    -0.23900
H1097       H  0.49720941  0.93045677  0.88682507     0.05200
H1098       H  0.52599395  0.95540973  0.91658767     0.08500
H1099       H  0.51782909  0.97144130  0.87171750     0.08500
H1100       H  0.35143129  0.00755591  0.93374919     0.08500
H1101       H  0.36688897  0.05314195  0.92474999     0.08500
H1102       H  0.37391594  0.03338502  0.96782747     0.05200
C1103       C  0.43539317  0.87776758  0.97527463    -0.20600
C1104       C  0.40281448  0.88991778  0.98948916    -0.07100
C1105       C  0.40186090  0.92528440  0.00409039     0.13700
C1106       C  0.43372946  0.94533477  0.00756604    -0.20600
C1107       C  0.46606438  0.93340963  0.99296855    -0.07100
C1108       C  0.46649575  0.89945283  0.97565582     0.13700
C1109       C  0.49886813  0.88530433  0.95679233    -0.24000
H1110       H  0.43672665  0.85102792  0.96369346     0.15000
H1111       H  0.43288802  0.97168056  0.02005969     0.15000
C1112       C  0.36758983  0.94398820  0.01410415    -0.23900
H1113       H  0.49189336  0.87974386  0.92837067     0.05200
H1114       H  0.50751089  0.85969825  0.96956122     0.08500
H1115       H  0.52148323  0.90461389  0.95720563     0.08500
H1116       H  0.36714314  0.94860285  0.04346660     0.08500
H1117       H  0.34329120  0.92882529  0.00577387     0.08500
H1118       H  0.36615333  0.97047428  0.00025900     0.05200
C1119       C  0.60604815  0.04592705  0.98645127    -0.20600
C1120       C  0.57395935  0.04582639  0.00540079    -0.07100
C1121       C  0.56451850  0.07631605  0.02583104     0.13700
C1122       C  0.58625129  0.10718138  0.02454645    -0.20600
C1123       C  0.61779700  0.10783203  0.00434653    -0.07100
C1124       C  0.62889811  0.07584311  0.98692581     0.13700
C1125       C  0.66488660  0.07168831  0.96937502    -0.24000
H1126       H  0.61333879  0.02249957  0.97094036     0.15000
H1127       H  0.57784594  0.13125074  0.03854130     0.15000
C1128       C  0.53136123  0.07750889  0.04847958    -0.23900
H1129       H  0.67830446  0.04717951  0.98005189     0.05200
H1130       H  0.68332681  0.09452093  0.97483571     0.08500
H1131       H  0.66117196  0.06864158  0.93999313     0.08500
H1132       H  0.51539705  0.05228169  0.04711508     0.08500
H1133       H  0.51400907  0.10011679  0.03955286     0.08500
H1134       H  0.53922509  0.08199905  0.07687894     0.05200
C1135       C  0.49802281  0.07743689  0.96117488    -0.20600
C1136       C  0.52023170  0.04930841  0.95001971    -0.07100
C1137       C  0.53983671  0.05329732  0.91817080     0.13700
C1138       C  0.53464861  0.08408969  0.89704448    -0.20600
C1139       C  0.51273212  0.11279318  0.90816640    -0.07100
C1140       C  0.49558674  0.10986513  0.94186992     0.13700
C1141       C  0.47651912  0.14066537  0.95971166    -0.24000
H1142       H  0.48359327  0.07460604  0.98606664     0.15000
H1143       H  0.54805329  0.08543503  0.87147341     0.15000
C1144       C  0.56692174  0.02613195  0.90584659    -0.23900
H1145       H  0.48704973  0.14396283  0.98744410     0.05200
H1146       H  0.44737133  0.13474121  0.96094128     0.08500
H1147       H  0.48091818  0.16687467  0.94620366     0.08500
H1148       H  0.55982845  0.01670624  0.87852070     0.08500
H1149       H  0.56899250  0.00244386  0.92383329     0.08500
H1150       H  0.59372101  0.03916997  0.90479279     0.05200
C1151       C  0.54127841  0.87050442  0.07234172    -0.20600
C1152       C  0.52004807  0.87621096  0.10267983    -0.07100
C1153       C  0.50190881  0.90954967  0.10626211     0.13700
C1154       C  0.50218186  0.93408589  0.07780987    -0.20600
C1155       C  0.52317848  0.92816077  0.04758712    -0.07100
C1156       C  0.54409369  0.89659805  0.04539168     0.13700
C1157       C  0.56986541  0.88958831  0.01548036    -0.24000
H1158       H  0.55560519  0.84532976  0.06934147     0.15000
H1159       H  0.48728209  0.95903796  0.07998007     0.15000
C1160       C  0.48362884  0.92119993  0.14015243    -0.23900
H1161       H  0.56261745  0.86407267  0.00170530     0.05200
H1162       H  0.59730536  0.88669370  0.02680384     0.08500
H1163       H  0.57032203  0.91154086  0.99540078     0.08500
H1164       H  0.48909316  0.90299315  0.16308908     0.08500
H1165       H  0.45427318  0.92293734  0.13539862     0.08500
H1166       H  0.49371697  0.94822799  0.14818100     0.05200
C1167       C  0.56485160  0.99577453  0.08869567    -0.20600
C1168       C  0.57691169  0.98508583  0.05485420    -0.07100
C1169       C  0.61347349  0.97584403  0.05109558     0.13700
C1170       C  0.63676693  0.97803884  0.08092540    -0.20600
C1171       C  0.62468475  0.98844829  0.11496054    -0.07100
C1172       C  0.58776367  0.99655244  0.11886856     0.13700
C1173       C  0.57090975  0.00451331  0.15449362    -0.24000
H1174       H  0.53693983  0.00295346  0.09181225     0.15000
H1175       H  0.66483677  0.97162420  0.07746192     0.15000
C1176       C  0.62901239  0.96346949  0.01618232    -0.23900
H1177       H  0.54803387  0.98583769  0.15873755     0.05200
H1178       H  0.56081815  0.03264183  0.15460773     0.08500
H1179       H  0.58936672  0.00070708  0.17752813     0.08500
H1180       H  0.65082332  0.98213427  0.00812041     0.08500
H1181       H  0.60889300  0.96236884  0.99421598     0.08500
H1182       H  0.64052543  0.93611456  0.01958833     0.05200
C1183       C  0.73937263  0.88568342  0.31056428    -0.20600
C1184       C  0.76081066  0.85518942  0.31799092    -0.07100
C1185       C  0.79592872  0.86190891  0.33114956     0.13700
C1186       C  0.81049325  0.89670324  0.32907377    -0.20600
C1187       C  0.78944441  0.92766071  0.32281940    -0.07100
C1188       C  0.75246447  0.92154993  0.31461310     0.13700
C1189       C  0.72609797  0.95188152  0.31026542    -0.24000
H1190       H  0.71218065  0.88150762  0.30095917     0.15000
H1191       H  0.83898150  0.89926504  0.33411048     0.15000
C1192       C  0.81931673  0.83405694  0.34889644    -0.23900
H1193       H  0.69804309  0.94177979  0.31028078     0.05200
H1194       H  0.72999488  0.96547498  0.28420786     0.08500
H1195       H  0.72892867  0.97128835  0.33272814     0.08500
H1196       H  0.84279852  0.82885551  0.33180014     0.08500
H1197       H  0.80518648  0.80878674  0.35571426     0.08500
H1198       H  0.82931917  0.84478950  0.37491763     0.05200
C1199       C  0.69677512  0.89462714  0.18836147    -0.20600
C1200       C  0.71702923  0.92634649  0.19166340    -0.07100
C1201       C  0.75376270  0.92311859  0.20177368     0.13700
C1202       C  0.76823596  0.88854440  0.20925187    -0.20600
C1203       C  0.74779783  0.85677366  0.20503698    -0.07100
C1204       C  0.71151547  0.86033997  0.19323379     0.13700
C1205       C  0.68688228  0.82875910  0.18599928    -0.24000
H1206       H  0.66854015  0.89661705  0.18161481     0.15000
H1207       H  0.79589118  0.88629408  0.21806646     0.15000
C1208       C  0.77850179  0.95529485  0.20323654    -0.23900
H1209       H  0.66067304  0.83720670  0.17444034     0.05200
H1210       H  0.68072933  0.81479398  0.21132322     0.08500
H1211       H  0.69901912  0.81031618  0.16621220     0.08500
H1212       H  0.77240942  0.97242076  0.22659091     0.08500
H1213       H  0.77609958  0.97118986  0.17810939     0.08500
H1214       H  0.80692651  0.94696020  0.20626525     0.05200
C1215       C  0.87055905  0.68623393  0.17478525    -0.20600
C1216       C  0.86835420  0.72035502  0.19053644    -0.07100
C1217       C  0.89904117  0.74272187  0.19103792     0.13700
C1218       C  0.93226679  0.72828657  0.18053937    -0.20600
C1219       C  0.93526302  0.69198300  0.16995979    -0.07100
C1220       C  0.90349947  0.67109222  0.16572497     0.13700
C1221       C  0.90379189  0.63166923  0.15538413    -0.24000
H1222       H  0.84665255  0.66965043  0.17353512     0.15000
H1223       H  0.95630554  0.74464977  0.18277095     0.15000
C1224       C  0.89748013  0.78036327  0.20586320    -0.23900
H1225       H  0.87685541  0.61923466  0.15782087     0.05200
H1226       H  0.92251759  0.61649883  0.17305948     0.08500
H1227       H  0.91117056  0.62816113  0.12700891     0.08500
H1228       H  0.88968366  0.77952735  0.23440313     0.08500
H1229       H  0.87751758  0.79637261  0.19044458     0.08500
H1230       H  0.92383932  0.79423293  0.20418588     0.05200
C1231       C  0.88426269  0.77073291  0.35157797    -0.20600
C1232       C  0.87826025  0.75070911  0.32042665    -0.07100
C1233       C  0.90858217  0.73822103  0.30201986     0.13700
C1234       C  0.94140327  0.75626100  0.30636307    -0.20600
C1235       C  0.94619401  0.78188660  0.33377935    -0.07100
C1236       C  0.91879303  0.78362186  0.36016106     0.13700
C1237       C  0.92522440  0.79703964  0.39775271    -0.24000
H1238       H  0.86208666  0.77651363  0.36908093     0.15000
H1239       H  0.96261496  0.75013663  0.28788161     0.15000
C1240       C  0.90755468  0.70445406  0.28007832    -0.23900
H1241       H  0.91691381  0.77588192  0.41707847     0.05200
H1242       H  0.90910771  0.82162697  0.40265603     0.08500
H1243       H  0.95396749  0.80263395  0.40322540     0.08500
H1244       H  0.91332001  0.71046796  0.25181889     0.08500
H1245       H  0.88161157  0.69028191  0.28277065     0.08500
H1246       H  0.92841508  0.68562839  0.29018635     0.05200
C1247       C  0.72289681  0.57667117  0.35286730    -0.20600
C1248       C  0.71617010  0.55319743  0.32373630    -0.07100
C1249       C  0.73132097  0.56221631  0.29027387     0.13700
C1250       C  0.75133462  0.59423797  0.28688632    -0.20600
C1251       C  0.75423953  0.61970069  0.31455378    -0.07100
C1252       C  0.74054390  0.61013663  0.34845251     0.13700
C1253       C  0.74411627  0.63519093  0.37999658    -0.24000
H1254       H  0.71249609  0.56974450  0.37897440     0.15000
H1255       H  0.76217619  0.60070684  0.26127361     0.15000
C1256       C  0.72393065  0.54048948  0.25691177    -0.23900
H1257       H  0.73364841  0.62271505  0.40487084     0.05200
H1258       H  0.72872785  0.66026692  0.37506760     0.08500
H1259       H  0.77278496  0.64200004  0.38457251     0.08500
H1260       H  0.69483240  0.53478502  0.25399074     0.08500
H1261       H  0.73955474  0.51521436  0.25741497     0.08500
H1262       H  0.73201804  0.55524903  0.23262437     0.05200
C1263       C  0.80291567  0.62227977  0.20971389    -0.20600
C1264       C  0.76766553  0.63059566  0.19890789    -0.07100
C1265       C  0.74791409  0.60426574  0.17978069     0.13700
C1266       C  0.76424512  0.57085513  0.17161714    -0.20600
C1267       C  0.79896835  0.56262082  0.18431399    -0.07100
C1268       C  0.81820808  0.58853254  0.20397791     0.13700
C1269       C  0.85405385  0.57982277  0.22098490    -0.24000
H1270       H  0.81767891  0.64080354  0.22605502     0.15000
H1271       H  0.74945622  0.55065082  0.15656786     0.15000
C1272       C  0.70972190  0.61115148  0.16871522    -0.23900
H1273       H  0.86553017  0.60325849  0.23568137     0.05200
H1274       H  0.87353593  0.57165592  0.20033886     0.08500
H1275       H  0.85079042  0.55727767  0.24029933     0.08500
H1276       H  0.70842169  0.63542919  0.15131445     0.08500
H1277       H  0.69313715  0.61561995  0.19280858     0.08500
H1278       H  0.69818105  0.58797094  0.15368714     0.05200
C1279       C  0.60417065  0.74045497  0.21867457    -0.20600
C1280       C  0.63258382  0.73390632  0.19541165    -0.07100
C1281       C  0.62842888  0.74381952  0.15901747     0.13700
C1282       C  0.59675341  0.76143529  0.14771177    -0.20600
C1283       C  0.57010749  0.77137630  0.17234705    -0.07100
C1284       C  0.57461539  0.76127059  0.20860307     0.13700
C1285       C  0.55151874  0.77523399  0.23847491    -0.24000
H1286       H  0.60694116  0.73326683  0.24627812     0.15000
H1287       H  0.59339464  0.76867202  0.11975837     0.15000
C1288       C  0.65703765  0.73560040  0.13209893    -0.23900
H1289       H  0.56894898  0.78775491  0.25915752     0.05200
H1290       H  0.53618974  0.75262672  0.25044663     0.08500
H1291       H  0.53291784  0.79693442  0.23043967     0.08500
H1292       H  0.66268231  0.70621944  0.13220999     0.08500
H1293       H  0.68199124  0.75061024  0.13857927     0.08500
H1294       H  0.64860091  0.74343078  0.10456871     0.05200
C1295       C  0.61961927  0.70083573  0.30662509    -0.20600
C1296       C  0.62744403  0.73747340  0.31197442    -0.07100
C1297       C  0.59914650  0.76114338  0.32044315     0.13700
C1298       C  0.56377659  0.74731280  0.32362504    -0.20600
C1299       C  0.55594525  0.71093414  0.31577144    -0.07100
C1300       C  0.58443600  0.68799814  0.30575389     0.13700
C1301       C  0.57867565  0.64972031  0.29306704    -0.24000
H1302       H  0.64091647  0.68245293  0.29948012     0.15000
H1303       H  0.54232321  0.76483504  0.33211848     0.15000
C1304       C  0.60643128  0.80055254  0.32667179    -0.23900
H1305       H  0.59111487  0.64633408  0.26638952     0.05200
H1306       H  0.54999816  0.64242896  0.28988066     0.08500
H1307       H  0.59146725  0.63066432  0.31222752     0.08500
H1308       H  0.61756313  0.81298152  0.30209671     0.08500
H1309       H  0.62604013  0.80376066  0.34900134     0.08500
H1310       H  0.58160320  0.81525743  0.33367139     0.05200
C1311       C  0.90139067  0.31105498  0.76410303    -0.20600
C1312       C  0.87925076  0.28922585  0.78557303    -0.07100
C1313       C  0.89426117  0.27457940  0.81773346     0.13700
C1314       C  0.93032863  0.28026930  0.82625251    -0.20600
C1315       C  0.95201231  0.30250020  0.80555013    -0.07100
C1316       C  0.93737306  0.31856604  0.77431227     0.13700
C1317       C  0.95969334  0.34384547  0.75220964    -0.24000
H1318       H  0.89070997  0.32202811  0.73932285     0.15000
H1319       H  0.94120834  0.26943564  0.85108261     0.15000
C1320       C  0.87218907  0.25480694  0.84506746    -0.23900
H1321       H  0.94455773  0.35404963  0.72855124     0.05200
H1322       H  0.98385207  0.32954330  0.74262394     0.08500
H1323       H  0.96817073  0.36732512  0.76869496     0.08500
H1324       H  0.86418435  0.22777500  0.83515475     0.08500
H1325       H  0.84849448  0.27138996  0.85150613     0.08500
H1326       H  0.88714914  0.25031185  0.87054841     0.05200
C1327       C  0.89698823  0.19581643  0.73887646    -0.20600
C1328       C  0.86743758  0.17339019  0.73099703    -0.07100
C1329       C  0.87390410  0.14068412  0.71305063     0.13700
C1330       C  0.90899680  0.13310289  0.70112813    -0.20600
C1331       C  0.93744992  0.15851998  0.70435336    -0.07100
C1332       C  0.93081207  0.19050291  0.72402597     0.13700
C1333       C  0.95681537  0.22184181  0.72619430    -0.24000
H1334       H  0.89251167  0.22059172  0.75334095     0.15000
H1335       H  0.91350233  0.10791032  0.68727801     0.15000
C1336       C  0.84439950  0.11421678  0.70465331    -0.23900
H1337       H  0.94321144  0.24722979  0.73386954     0.05200
H1338       H  0.96913324  0.22705876  0.69974452     0.08500
H1339       H  0.97744466  0.21689212  0.74714210     0.08500
H1340       H  0.81804963  0.12329461  0.71459082     0.08500
H1341       H  0.85067353  0.08787904  0.71738174     0.08500
H1342       H  0.84224844  0.11034048  0.67523626     0.05200
C1343       C  0.68722642  0.22919795  0.87274417    -0.20600
C1344       C  0.70673382  0.20276315  0.85395436    -0.07100
C1345       C  0.71385401  0.16957314  0.87144709     0.13700
C1346       C  0.70233404  0.16455555  0.90697708    -0.20600
C1347       C  0.68397374  0.19171800  0.92564732    -0.07100
C1348       C  0.67554695  0.22404036  0.90785292     0.13700
C1349       C  0.65342341  0.25293211  0.92534177    -0.24000
H1350       H  0.68211209  0.25512047  0.86063522     0.15000
H1351       H  0.70797880  0.13930155  0.92053229     0.15000
C1352       C  0.73439163  0.13980616  0.85365605    -0.23900
H1353       H  0.64765802  0.27562761  0.90672643     0.05200
H1354       H  0.66792091  0.26418139  0.94886178     0.08500
H1355       H  0.62739631  0.24140874  0.93397672     0.08500
H1356       H  0.76211460  0.14895792  0.84800752     0.08500
H1357       H  0.72065551  0.13184516  0.82835757     0.08500
H1358       H  0.73633622  0.11548480  0.87096278     0.05200
C1359       C  0.76856737  0.33204775  0.88049366    -0.20600
C1360       C  0.77510041  0.29588707  0.87142358    -0.07100
C1361       C  0.78539710  0.27137908  0.89936716     0.13700
C1362       C  0.79065630  0.28422863  0.93402262    -0.20600
C1363       C  0.78605849  0.32042056  0.94257471    -0.07100
C1364       C  0.77372333  0.34458360  0.91576745     0.13700
C1365       C  0.76532953  0.38344801  0.92359007    -0.24000
H1366       H  0.75971454  0.35079203  0.85996191     0.15000
H1367       H  0.80036594  0.26590169  0.95454040     0.15000
C1368       C  0.79104251  0.23131457  0.89433711    -0.23900
H1369       H  0.73726523  0.38925896  0.91535379     0.05200
H1370       H  0.78364665  0.40125262  0.90829665    -0.01100
H1371       H  0.76786857  0.38997331  0.95245238     0.08500
H1372       H  0.81364856  0.22578388  0.87637153     0.08500
H1373       H  0.76653479  0.21892848  0.88352092     0.08500
H1374       H  0.79713626  0.21712474  0.91989486     0.05200
C1375       C  0.61931192  0.17729951  0.78000749    -0.20600
C1376       C  0.63217199  0.21284548  0.78368307    -0.07100
C1377       C  0.60970212  0.23796884  0.80216814     0.13700
C1378       C  0.57662389  0.22684930  0.81623892    -0.20600
C1379       C  0.56444623  0.19146286  0.81332597    -0.07100
C1380       C  0.58604160  0.16630903  0.79460596     0.13700
C1381       C  0.57462492  0.12768373  0.78917630    -0.24000
H1382       H  0.63543866  0.15773122  0.76597114     0.15000
H1383       H  0.56033851  0.24590900  0.83082652     0.15000
C1384       C  0.61874448  0.27732257  0.80677306    -0.23900
H1385       H  0.57431527  0.12139660  0.76011655     0.05200
H1386       H  0.54741714  0.12199933  0.79941738     0.08500
H1387       H  0.59392508  0.10950848  0.80295684     0.08500
H1388       H  0.64393238  0.28121660  0.82203310     0.08500
H1389       H  0.59777846  0.29225329  0.82149851     0.08500
H1390       H  0.62035715  0.28982926  0.78025222     0.05200
C1391       C  0.61950016  0.30307634  0.70431256    -0.20600
C1392       C  0.64171381  0.32479292  0.72628196    -0.07100
C1393       C  0.62994035  0.35963896  0.73581270     0.13700
C1394       C  0.59621295  0.37148516  0.72334859    -0.20600
C1395       C  0.57421027  0.34901548  0.70224169    -0.07100
C1396       C  0.58618004  0.31469532  0.69219605     0.13700
C1397       C  0.56408821  0.29034020  0.66817679    -0.24000
H1398       H  0.62777889  0.27616111  0.69688374     0.15000
H1399       H  0.58673238  0.39811494  0.73039535     0.15000
C1400       C  0.65263906  0.38439466  0.75853587    -0.23900
H1401       H  0.57841340  0.26500222  0.66172482     0.05200
H1402       H  0.55794023  0.30439864  0.64257736     0.08500
H1403       H  0.53871082  0.28277636  0.68147850     0.08500
H1404       H  0.67903968  0.38863530  0.74571380     0.08500
H1405       H  0.65655668  0.37253101  0.78558598     0.08500
H1406       H  0.63984011  0.41115513  0.76190215     0.05200
C1407       C  0.69502666  0.32591148  0.63899026    -0.20600
C1408       C  0.73211908  0.32018171  0.64101234    -0.07100
C1409       C  0.75213851  0.32293407  0.60919142     0.13700
C1410       C  0.73433432  0.32921596  0.57614029    -0.20600
C1411       C  0.69671759  0.33174277  0.57393974    -0.07100
C1412       C  0.67693721  0.33039864  0.60616830     0.13700
C1413       C  0.63650824  0.33051971  0.60712782    -0.24000
H1414       H  0.67936827  0.32273289  0.66294636     0.15000
H1415       H  0.74974738  0.33115838  0.55176798     0.15000
C1416       C  0.79205324  0.31731993  0.60995444    -0.23900
H1417       H  0.62371035  0.33053673  0.58027831     0.05200
H1418       H  0.62713542  0.35443684  0.62220046     0.08500
H1419       H  0.62704988  0.30577183  0.62092886     0.08500
H1420       H  0.80385239  0.32062615  0.58295628     0.08500
H1421       H  0.79832989  0.28971145  0.61964049     0.08500
H1422       H  0.80478373  0.33733800  0.62818515     0.05200
C1423       C  0.81569119  0.17371789  0.63536695    -0.20600
C1424       C  0.77877252  0.17873593  0.63979829    -0.07100
C1425       C  0.75572989  0.17559058  0.60974948     0.13700
C1426       C  0.77046713  0.16920054  0.57579994    -0.20600
C1427       C  0.80772475  0.16685795  0.57126616    -0.07100
C1428       C  0.83061809  0.16874519  0.60161707     0.13700
C1429       C  0.87101618  0.16835339  0.59948051    -0.24000
H1430       H  0.83358935  0.17790237  0.65796605     0.15000
H1431       H  0.75298022  0.16709194  0.55253794     0.15000
C1432       C  0.71599695  0.18137173  0.61310975    -0.23900
H1433       H  0.88117430  0.16821969  0.57173899     0.05200
H1434       H  0.88150393  0.14426321  0.61377240     0.08500
H1435       H  0.88211078  0.19290910  0.61255729     0.08500
H1436       H  0.71066159  0.20909534  0.62282053     0.08500
H1437       H  0.70480175  0.16155652  0.63234497     0.08500
H1438       H  0.70186295  0.17790682  0.58701873     0.05200
C1439       C  0.28110923  0.79460553  0.88078346    -0.20600
C1440       C  0.29828891  0.76380792  0.86710485    -0.07100
C1441       C  0.32726016  0.74933433  0.88729971     0.13700
C1442       C  0.33856167  0.76657977  0.91947786    -0.20600
C1443       C  0.32033555  0.79672866  0.93312563    -0.07100
C1444       C  0.29028814  0.80978293  0.91408269     0.13700
C1445       C  0.26788854  0.84010838  0.92870674    -0.24000
H1446       H  0.26009097  0.80732226  0.86515366     0.15000
H1447       H  0.36162574  0.75643243  0.93412129     0.15000
C1448       C  0.34720838  0.71675979  0.87443403    -0.23900
H1449       H  0.24604307  0.84789280  0.90984927     0.05200
H1450       H  0.28470388  0.86429082  0.93397419     0.08500
H1451       H  0.25538744  0.83140547  0.95416081     0.08500
H1452       H  0.35806781  0.72202675  0.84734334     0.08500
H1453       H  0.32890902  0.69312479  0.87340895     0.08500
H1454       H  0.36995425  0.70990501  0.89257248     0.05200
C1455       C  0.19074292  0.75873937  0.88102054    -0.20600
C1456       C  0.17064535  0.75531206  0.84940592    -0.07100
C1457       C  0.14013002  0.73265249  0.85037328     0.13700
C1458       C  0.13177686  0.71346301  0.88221583    -0.20600
C1459       C  0.15557974  0.71283010  0.91208780    -0.07100
C1460       C  0.18665952  0.73495478  0.90992879     0.13700
C1461       C  0.21938272  0.72964923  0.93333731    -0.24000
H1462       H  0.21445685  0.77515897  0.88042338     0.15000
H1463       H  0.10743659  0.69752300  0.88285379     0.15000
C1464       C  0.11702486  0.72806734  0.81747741    -0.23900
H1465       H  0.24400017  0.73039829  0.91685903     0.05200
H1466       H  0.21955435  0.70264066  0.94597449     0.08500
H1467       H  0.22135461  0.75147366  0.95357801     0.08500
H1468       H  0.13302691  0.71680013  0.79533051     0.08500
H1469       H  0.10618334  0.75465317  0.80911914     0.08500
H1470       H  0.09417217  0.70950962  0.82241828     0.05200
C1471       C  0.20353325  0.90101699  0.71015791    -0.20600
C1472       C  0.21834570  0.87544363  0.68681463    -0.07100
C1473       C  0.22474329  0.88564172  0.65076235     0.13700
C1474       C  0.21737617  0.92096737  0.63955531    -0.20600
C1475       C  0.20378868  0.94681816  0.66306311    -0.07100
C1476       C  0.19608427  0.93656398  0.69865974     0.13700
C1477       C  0.17924354  0.96275050  0.72417279    -0.24000
H1478       H  0.19865384  0.89346458  0.73773581     0.15000
H1479       H  0.22212044  0.92858060  0.61194520     0.15000
C1480       C  0.23858331  0.85940496  0.62341431    -0.23900
H1481       H  0.17405997  0.95013400  0.75062539     0.05200
H1482       H  0.15329759  0.97231601  0.71294017     0.08500
H1483       H  0.19732455  0.98618230  0.72849883     0.08500
H1484       H  0.23803975  0.87093489  0.59593733     0.08500
H1485       H  0.22164546  0.83479021  0.62317628     0.08500
H1486       H  0.26679000  0.85239961  0.62961780     0.05200
C1487       C  0.31909006  0.85892633  0.81821028    -0.20600
C1488       C  0.31275807  0.85627177  0.78134244    -0.07100
C1489       C  0.32369435  0.88479557  0.75878679     0.13700
C1490       C  0.33709248  0.91667939  0.77416149    -0.20600
C1491       C  0.33934337  0.92066953  0.81145871    -0.07100
C1492       C  0.33180164  0.89086206  0.83377486     0.13700
C1493       C  0.33405122  0.89328785  0.87404667    -0.24000
H1494       H  0.31110316  0.83688877  0.83515551     0.15000
H1495       H  0.34369757  0.93942963  0.75714629     0.15000
C1496       C  0.31851782  0.88311578  0.71888701    -0.23900
H1497       H  0.32540249  0.86783114  0.88674034     0.05200
H1498       H  0.31666489  0.91535736  0.88379947     0.08500
H1499       H  0.36201809  0.89783680  0.88309999     0.08500
H1500       H  0.28958243  0.88389232  0.71250976     0.08500
H1501       H  0.33062929  0.85807922  0.70822617     0.08500
H1502       H  0.33118593  0.90648540  0.70525573     0.05200
C1503       C  0.28780537  0.68367717  0.61655302    -0.20600
C1504       C  0.29486278  0.71854724  0.62980796    -0.07100
C1505       C  0.31337837  0.74340546  0.60777415     0.13700
C1506       C  0.32379536  0.73277327  0.57317378    -0.20600
C1507       C  0.31554067  0.69826909  0.55998078    -0.07100
C1508       C  0.29714323  0.67352708  0.58187953     0.13700
C1509       C  0.28587846  0.63683552  0.56825334    -0.24000
H1510       H  0.27347286  0.66445578  0.63304621     0.15000
H1511       H  0.33818748  0.75150094  0.55620494     0.15000
C1512       C  0.32074102  0.78146482  0.61971695    -0.23900
H1513       H  0.26956613  0.62194917  0.58816756     0.05200
H1514       H  0.30966025  0.62010252  0.56245143     0.08500
H1515       H  0.26946144  0.63993218  0.54347619     0.08500
H1516       H  0.33805964  0.78129148  0.64405009     0.08500
H1517       H  0.29507997  0.79508323  0.62561886     0.08500
H1518       H  0.33462019  0.79738227  0.59875596     0.05200
C1519       C  0.20431443  0.76339634  0.60157968    -0.20600
C1520       C  0.17673457  0.76305803  0.62699338    -0.07100
C1521       C  0.14184303  0.77180399  0.61531360     0.13700
C1522       C  0.13617272  0.78304395  0.57929497    -0.20600
C1523       C  0.16491013  0.78727968  0.55490600    -0.07100
C1524       C  0.19954153  0.77638777  0.56665078     0.13700
C1525       C  0.23286986  0.78136421  0.54443682    -0.24000
H1526       H  0.23107593  0.75603501  0.61004572     0.15000
H1527       H  0.10935088  0.79038898  0.57082338     0.15000
C1528       C  0.11120990  0.77120778  0.64110936    -0.23900
H1529       H  0.25769522  0.77581729  0.56006137     0.05200
H1530       H  0.23492155  0.80964988  0.53487310     0.08500
H1531       H  0.23280787  0.76226875  0.52167515     0.08500
H1532       H  0.11677383  0.79015351  0.66349544     0.08500
H1533       H  0.10781249  0.74355128  0.65202107     0.08500
H1534       H  0.08566960  0.77932123  0.62793460     0.05200
C1535       C  0.33158662  0.62720023  0.71416501    -0.20600
C1536       C  0.29744329  0.62900393  0.72923812    -0.07100
C1537       C  0.27804346  0.59614929  0.73330957     0.13700
C1538       C  0.28990023  0.56447773  0.71672454    -0.20600
C1539       C  0.32251895  0.56296972  0.69845420    -0.07100
C1540       C  0.34520690  0.59423070  0.70083540     0.13700
C1541       C  0.38439271  0.59366893  0.69181714    -0.24000
H1542       H  0.34763395  0.65155623  0.71245547     0.15000
H1543       H  0.27227944  0.54128426  0.71688864     0.15000
C1544       C  0.24413925  0.59400997  0.75479471    -0.23900
H1545       H  0.40019199  0.60533401  0.71437289     0.05200
H1546       H  0.38932969  0.60999246  0.66739120     0.08500
H1547       H  0.39442609  0.56593842  0.68827808     0.08500
H1548       H  0.22223797  0.60818745  0.74065424     0.08500
H1549       H  0.24876151  0.60586268  0.78172431     0.08500
H1550       H  0.23506897  0.56572403  0.75874690     0.05200
C1551       C  0.18247564  0.63586334  0.83005627    -0.20600
C1552       C  0.17395192  0.64191559  0.79375459    -0.07100
C1553       C  0.15540377  0.61496307  0.77424641     0.13700
C1554       C  0.15082942  0.58083205  0.78992134    -0.20600
C1555       C  0.16366595  0.57369035  0.82462166    -0.07100
C1556       C  0.17760083  0.60195400  0.84572913     0.13700
C1557       C  0.18883530  0.59592017  0.88414591    -0.24000
H1558       H  0.19570369  0.65697529  0.84537787     0.15000
H1559       H  0.13836594  0.55924679  0.77466562     0.15000
C1560       C  0.14237448  0.62121344  0.73643358    -0.23900
H1561       H  0.19975907  0.62091445  0.89654732     0.05200
H1562       H  0.20984393  0.57482842  0.88554145     0.08500
H1563       H  0.16538468  0.58711560  0.90003669     0.08500
H1564       H  0.16519075  0.62730154  0.71857684     0.08500
H1565       H  0.12335234  0.64416359  0.73595310     0.08500
H1566       H  0.12821071  0.59717753  0.72551802     0.05200
loop_ 
_geom_bond_atom_site_label_1 
_geom_bond_atom_site_label_2 
_geom_bond_distance 
_geom_bond_site_symmetry_2 
_ccdc_geom_bond_type 
O1            C9   1.285       .  A
O1          Co21   2.025       .  S
O2           C10   1.311       .  A
O2          Co22   2.099       .  S
O3           C11   1.280       .  A
O3          Co23   2.004       .  S
O4           C12   1.303       .  A
O4          Co24   2.125       .  S
O5           C11   1.282       .  A
O5          Co22   1.994       .  S
O6           C12   1.285       .  A
O6          Co21   1.930       .  S
O7           C10   1.278       .  A
O7          Co24   1.871       .  S
O8            C9   1.268       .  A
O8          Co23   1.985       .  S
C9         C1536   1.501       .  S
C10        C1488   1.472       .  S
C11        C1504   1.488       .  S
C12        C1440   1.513       .  S
O13          C26   1.263       .  A
O13         Co21   2.017       .  S
O14          C27   1.260       .  A
O14         Co22   1.996       .  S
O15          C28   1.283       .  A
O15         Co23   2.001       .  S
O16          C29   1.313       .  A
O16         Co24   2.109       .  S
O17          C29   1.277       .  A
O17         Co22   1.876       .  S
O18          C28   1.279       .  A
O18         Co21   1.978       .  S
O19          C26   1.275       .  A
O19         Co24   2.013       .  S
O20          C27   1.268       .  A
O20         Co23   2.005       .  S
Co21         O25   1.901       .  S
Co22         O25   1.982       .  S
Co23         O25   2.009       .  S
Co24         O25   2.026       .  S
C26        C1456   1.492       .  S
C27        C1520   1.500       .  S
C28        C1552   1.474       .  S
C29        C1472   1.492       .  S
O30          C38   1.280       .  A
O30         Co50   1.993       .  S
O31          C39   1.281       .  A
O31         Co51   1.973       .  S
O32          C40   1.270       .  A
O32         Co52   1.976       .  S
O33          C41   1.290       .  A
O33         Co53   2.085       .  S
O34          C40   1.283       .  A
O34         Co51   2.013       .  S
O35          C41   1.281       .  A
O35         Co50   2.024       .  S
O36          C39   1.310       .  A
O36         Co53   2.088       .  S
O37          C38   1.274       .  A
O37         Co52   1.988       .  S
C38        C1424   1.469       .  S
C39        C1344   1.500       .  S
C40        C1328   1.495       .  S
C41        C1376   1.521       .  S
O42          C55   1.292       .  A
O42         Co50   2.059       .  S
O43          C56   1.265       .  A
O43         Co51   1.982       .  S
O44          C57   1.276       .  A
O44         Co52   2.019       .  S
O45          C58   1.275       .  A
O45         Co53   2.018       .  S
O46          C58   1.259       .  A
O46         Co51   1.974       .  S
O47          C57   1.260       .  A
O47         Co50   1.978       .  S
O48          C55   1.280       .  A
O48         Co53   1.920       .  S
O49          C56   1.281       .  A
O49         Co52   2.021       .  S
Co50         O54   2.129       .  S
Co51         O54   2.072       .  S
Co52         O54   2.052       .  S
Co53         O54   1.923       .  S
C55        C1392   1.485       .  S
C56        C1312   1.502       .  S
C57        C1408   1.483       .  S
C58        C1360   1.493       .  S
O59          C67   1.269       .  A
O59         Co79   2.035       .  S
O60          C68   1.295       .  A
O60         Co80   2.110       .  S
O61          C69   1.246       .  A
O61         Co81   1.950       .  S
O62          C70   1.263       .  A
O62         Co82   1.976       .  S
O63          C69   1.261       .  A
O63         Co80   2.047       .  S
O64          C70   1.279       .  A
O64         Co79   2.051       .  S
O65          C68   1.257       .  A
O65         Co82   1.868       .  S
O66          C67   1.252       .  A
O66         Co81   1.969       .  S
C67        C1280   1.491       .  S
C68        C1216   1.477       .  S
C69        C1203   1.507       .  S
C70        C1264   1.494       .  S
O71          C84   1.251       .  A
O71         Co79   1.967       .  S
O72          C85   1.271       .  A
O72         Co80   1.974       .  S
O73          C86   1.275       .  A
O73         Co81   2.045       .  S
O74          C87   1.294       .  A
O74         Co82   2.088       .  S
O75          C87   1.268       .  A
O75         Co80   1.906       .  S
O76          C86   1.258       .  A
O76         Co79   1.964       .  S
O77          C84   1.265       .  A
O77         Co82   2.042       .  S
O78          C85   1.281       .  A
O78         Co81   2.049       .  S
Co79         O83   2.074       .  S
Co80         O83   2.070       .  S
Co81         O83   2.041       .  S
Co82         O83   2.027       .  S
C84        C1251   1.503       .  S
C85        C1184   1.514       .  S
C86        C1296   1.488       .  S
C87        C1232   1.486       .  S
C88        C1168   1.506       .  S
C88          C89   1.413   1_565  A
C88          C93   1.423       .  A
C89        C1120   1.482       .  S
C89          C90   1.412   1_554  A
C90        C1136   1.491       .  S
C90          C91   1.410   1_545  A
C91        C1091   1.486       .  S
C91          C92   1.416       .  A
C92        C1107   1.505       .  S
C92          C93   1.423   1_556  A
C93        C1155   1.478       .  S
C94        C1075   1.500       .  S
C94          C95   1.412       .  A
C94          C99   1.410   1_545  A
C95          C96   1.404   1_545  A
C95         H100   1.083       .  S
C96        C1171   1.503       .  S
C96          C97   1.404       .  A
C97          C98   1.416       .  A
C97         H101   1.083       .  S
C98        C1200   1.509       .  S
C98          C99   1.412       .  A
C99         H102   1.077       .  S
C103       C1347   1.485       .  S
C103        C104   1.398       .  A
C103        C108   1.416       .  A
C104        C105   1.397   1_556  A
C104        H109   1.085       .  S
C105       C1123   1.484       .  S
C105        C106   1.400       .  A
C106        C107   1.409       .  A
C106        H110   1.084       .  S
C107       C1059   1.495       .  S
C107        C108   1.411   1_554  A
C108        H111   1.083       .  S
C112       C1491   1.477       .  S
C112        C113   1.394       .  A
C112        C117   1.402       .  A
C113        C114   1.401       .  A
C113        H118   1.082       .  S
C114       C1088   1.485       .  S
C114        C115   1.406   1_565  A
C115        C116   1.406       .  A
C115        H119   1.082       .  S
C116       C1040   1.479       .  S
C116        C117   1.402   1_545  A
C117        H120   1.084       .  S
C121       C1379   1.502       .  S
C121        C122   1.421       .  A
C121        C126   1.399       .  A
C122        C123   1.423       .  A
C122        H127   1.080       .  S
C123       C1027   1.518       .  S
C123        C124   1.412       .  A
C124        C125   1.407       .  A
C124        H128   1.081       .  S
C125       C1139   1.499       .  S
C125        C126   1.403       .  A
C126        H129   1.084       .  S
C130       C1283   1.493       .  S
C130        C131   1.410       .  A
C130        C135   1.406       .  A
C131        C132   1.401       .  A
C131        H136   1.084       .  S
C132       C1008   1.475       .  S
C132        C133   1.393       .  A
C133        C134   1.402       .  A
C133        H137   1.084       .  S
C134       C1152   1.485       .  S
C134        C135   1.408       .  A
C135        H138   1.083       .  S
C139        C992   1.508       .  S
C139        C140   1.415   1_554  A
C139        C144   1.405       .  A
C140        C141   1.410       .  A
C140        H145   1.083   1_556  S
C141       C1443   1.499       .  S
C141        C142   1.410       .  A
C142        C143   1.412       .  A
C142        H146   1.083       .  S
C143       C1104   1.505       .  S
C143        C144   1.406   1_556  A
C144        H147   1.073       .  S
C148        C896   1.479       .  S
C148        C149   1.403   1_455  A
C148        C153   1.406       .  A
C149        C976   1.477       .  S
C149        C150   1.404   1_556  A
C150        C960   1.480       .  S
C150        C151   1.412       .  A
C151        C947   1.494       .  S
C151        C152   1.423       .  A
C152        C928   1.482       .  S
C152        C153   1.419   1_654  A
C153        C912   1.494       .  S
C154       C1459   1.523       .  S
C154        C155   1.421       .  A
C154        C159   1.423       .  A
C155        C156   1.416       .  A
C155        H160   1.079       .  S
C156        C915   1.504       .  S
C156        C157   1.401   1_556  A
C157        C158   1.391       .  A
C157        H161   1.083       .  S
C158        C880   1.497       .  S
C158        C159   1.408   1_554  A
C159        H162   1.080       .  S
C163       C1555   1.470       .  S
C163        C164   1.390       .  A
C163        C168   1.404       .  A
C164        C165   1.399       .  A
C164        H169   1.084       .  S
C165        C899   1.476       .  S
C165        C166   1.403       .  A
C166        C167   1.405       .  A
C166        H170   1.084       .  S
C167        C864   1.483       .  S
C167        C168   1.408       .  A
C168        H171   1.084       .  S
C172       C1219   1.493       .  S
C172        C173   1.414       .  A
C172        C177   1.394       .  A
C173        C174   1.421   1_655  A
C173        H178   1.081       .  S
C174        C848   1.516       .  S
C174        C175   1.416       .  A
C175        C176   1.404       .  A
C175        H179   1.079       .  S
C176        C931   1.493       .  S
C176        C177   1.396   1_455  A
C177        H180   1.080       .  S
C181       C1267   1.481       .  S
C181        C182   1.399       .  A
C181        C186   1.397       .  A
C182        C183   1.410       .  A
C182        H187   1.082       .  S
C183        C832   1.500       .  S
C183        C184   1.413       .  A
C184        C185   1.414       .  A
C184        H188   1.080       .  S
C185        C944   1.500       .  S
C185        C186   1.406       .  A
C186        H189   1.084       .  S
C190        C819   1.498       .  S
C190        C191   1.406       .  A
C190        C195   1.420       .  A
C191        C192   1.399       .  A
C191        H196   1.083       .  S
C192        C979   1.481   1_455  S
C192        C193   1.393   1_455  A
C193        C194   1.395       .  A
C193        H197   1.085       .  S
C194       C1315   1.483       .  S
C194        C195   1.413   1_655  A
C195        H198   1.083       .  S
C199        C800   1.501       .  S
C199        C200   1.409       .  A
C199        C204   1.407       .  A
C200        C201   1.401       .  A
C200        H205   1.082       .  S
C201        C963   1.486       .  S
C201        C202   1.399   1_554  A
C202        C203   1.399       .  A
C202        H206   1.084       .  S
C203       C1363   1.481       .  S
C203        C204   1.411   1_556  A
C204        H207   1.083       .  S
C208        C784   1.476       .  S
C208        C209   1.413       .  A
C208        C213   1.415       .  A
C209        C771   1.488       .  S
C209        C210   1.409       .  A
C210        C752   1.482       .  S
C210        C211   1.405       .  A
C211        C736   1.475       .  S
C211        C212   1.405       .  A
C212        C704   1.479       .  S
C212        C213   1.407       .  A
C213        C720   1.492       .  S
C214        C691   1.474       .  S
C214        C215   1.399       .  A
C214        C219   1.399       .  A
C215        C216   1.398       .  A
C215        H220   1.084       .  S
C216       C1395   1.467       .  S
C216        C217   1.395       .  A
C217        C218   1.403       .  A
C217        H221   1.084       .  S
C218        C787   1.480       .  S
C218        C219   1.405       .  A
C219        H222   1.084       .  S
C223        C675   1.473       .  S
C223        C224   1.407       .  A
C223        C228   1.397       .  A
C224        C225   1.407       .  A
C224        H229   1.083       .  S
C225       C1507   1.478       .  S
C225        C226   1.400       .  A
C226        C227   1.400       .  A
C226        H230   1.084       .  S
C227        C707   1.480       .  S
C227        C228   1.395       .  A
C228        H231   1.085       .  S
C232       C1248   1.508       .  S
C232        C233   1.410       .  A
C232        C237   1.418       .  A
C233        C234   1.403       .  A
C233        H238   1.081       .  S
C234        C755   1.489       .  S
C234        C235   1.398       .  A
C235        C236   1.394       .  A
C235        H239   1.083       .  S
C236        C656   1.483       .  S
C236        C237   1.408       .  A
C237        H240   1.078       .  S
C241        C643   1.528       .  S
C241        C242   1.412       .  A
C241        C246   1.432       .  A
C242        C243   1.397       .  A
C242        H247   1.078       .  S
C243        C739   1.482       .  S
C243        C244   1.388       .  A
C244        C245   1.394       .  A
C244        H248   1.085       .  S
C245       C1299   1.494       .  S
C245        C246   1.420       .  A
C246        H249   1.075       .  S
C250       C1539   1.526       .  S
C250        C251   1.431       .  A
C250        C255   1.411       .  A
C251        C252   1.419       .  A
C251        H256   1.081       .  S
C252        C624   1.497       .  S
C252        C253   1.396       .  A
C253        C254   1.397       .  A
C253        H257   1.085       .  S
C254        C723   1.479       .  S
C254        C255   1.403       .  A
C255        H258   1.081       .  S
C259        C608   1.536       .  S
C259        C260   1.429       .  A
C259        C264   1.413       .  A
C260        C261   1.421       .  A
C260        H265   1.079       .  S
C261       C1411   1.499       .  S
C261        C262   1.400       .  A
C262        C263   1.395       .  A
C262        H266   1.082       .  S
C263        C768   1.489       .  S
C263        C264   1.404       .  A
C264        H267   1.078       .  S
C268        C528   1.492       .  S
C268        C269   1.409   1_645  A
C268        C273   1.407       .  A
C269        C512   1.483       .  S
C269        C270   1.421       .  A
C270        C592   1.497       .  S
C270        C271   1.422   1_565  A
C271        C576   1.491       .  S
C271        C272   1.412       .  A
C272        C560   1.490       .  S
C272        C273   1.409   1_455  A
C273        C547   1.477       .  S
C274       C1331   1.513       .  S
C274        C275   1.409       .  A
C274        C279   1.415   1_655  A
C275        C276   1.407   1_655  A
C275        H280   1.080       .  S
C276        C563   1.492       .  S
C276        C277   1.406       .  A
C277        C278   1.397       .  A
C277        H281   1.084       .  S
C278        C496   1.491       .  S
C278        C279   1.408       .  A
C279        H282   1.077       .  S
C283        C480   1.488       .  S
C283        C284   1.415       .  A
C283        C288   1.400       .  A
C284        C285   1.415   1_545  A
C284        H289   1.083       .  S
C285       C1475   1.489       .  S
C285        C286   1.400       .  A
C286        C287   1.396   1_565  A
C286        H290   1.083       .  S
C287        C579   1.472       .  S
C287        C288   1.393       .  A
C288        H291   1.084       .  S
C292       C1523   1.515       .  S
C292        C293   1.411       .  A
C292        C297   1.416       .  A
C293        C294   1.416       .  A
C293        H298   1.074       .  S
C294        C595   1.511       .  S
C294        C295   1.405       .  A
C295        C296   1.392       .  A
C295        H299   1.081       .  S
C296        C464   1.483       .  S
C296        C297   1.407       .  A
C297        H300   1.080       .  S
C301       C1427   1.478       .  S
C301        C302   1.412       .  A
C301        C306   1.397       .  A
C302        C303   1.418       .  A
C302        H307   1.080       .  S
C303        C448   1.509       .  S
C303        C304   1.406       .  A
C304        C305   1.396       .  A
C304        H308   1.079       .  S
C305        C544   1.476       .  S
C305        C306   1.391       .  A
C306        H309   1.084       .  S
C310        C432   1.507       .  S
C310        C311   1.401       .  A
C310        C315   1.422   1_545  A
C311        C312   1.397   1_545  A
C311        H316   1.083       .  S
C312        C531   1.500       .  S
C312        C313   1.400       .  A
C313        C314   1.418       .  A
C313        H317   1.077       .  S
C314       C1187   1.531       .  S
C314        C315   1.427       .  A
C315        H318   1.075       .  S
C319       C1235   1.512       .  S
C319        C320   1.406       .  A
C319        C324   1.421   1_655  A
C320        C321   1.393   1_655  A
C320        H325   1.079       .  S
C321        C515   1.478       .  S
C321        C322   1.395       .  A
C322        C323   1.403       .  A
C322        H326   1.082       .  S
C323        C416   1.501       .  S
C323        C324   1.417       .  A
C324        H327   1.077       .  S
O328        C336   1.283       .  A
O328       Co348   1.986       .  S
O329        C337   1.267       .  A
O329       Co349   2.007       .  S
O330        C338   1.262       .  A
O330       Co350   1.953       .  S
O331        C339   1.271       .  A
O331       Co351   1.973       .  S
O332        C338   1.295       .  A
O332       Co349   2.063       .  S
O333        C339   1.281       .  A
O333       Co348   2.006       .  S
O334        C337   1.261       .  A
O334       Co351   2.029       .  S
O335        C336   1.285       .  A
O335       Co350   2.027       .  S
C336        C483   1.487       .  S
C337        C627   1.510       .  S
C338        C499   1.511       .  S
C339        C688   1.489       .  S
O340        C353   1.276       .  A
O340       Co348   2.000       .  S
O341        C354   1.264       .  A
O341       Co349   1.986       .  S
O342        C355   1.257       .  A
O342       Co350   1.942       .  S
O343        C356   1.288       .  A
O343       Co351   1.916       .  S
O344        C356   1.306       .  A
O344       Co349   2.114       .  S
O345        C355   1.277       .  A
O345       Co348   2.034       .  S
O346        C353   1.291       .  A
O346       Co351   2.016       .  S
O347        C354   1.266       .  A
O347       Co350   1.981       .  S
Co348       O352   2.054       .  S
Co349       O352   2.134       .  S
Co350       O352   1.922       .  S
Co351       O352   1.915       .  S
C353       C1024   1.494       .  S
C354        C816   1.473       .  S
C355       C1043   1.491       .  S
C356        C867   1.488       .  S
O357        C365   1.272       .  A
O357       Co377   1.987       .  S
O358        C366   1.255       .  A
O358       Co378   1.989       .  S
O359        C367   1.267       .  A
O359       Co379   2.057       .  S
O360        C368   1.293       .  A
O360       Co380   2.072       .  S
O361        C367   1.242       .  A
O361       Co378   1.946       .  S
O362        C368   1.272       .  A
O362       Co377   1.874       .  S
O363        C366   1.247       .  A
O363       Co380   1.996       .  S
O364        C365   1.268       .  A
O364       Co379   2.020       .  S
C365        C435   1.507       .  S
C366        C835   1.489       .  S
C367        C803   1.498       .  S
C368        C451   1.463       .  S
O369        C382   1.278       .  A
O369       Co377   2.079       .  S
O370        C383   1.271       .  A
O370       Co378   2.052       .  S
O371        C384   1.256       .  A
O371       Co379   1.964       .  S
O372        C385   1.260       .  A
O372       Co380   1.948       .  S
O373        C385   1.280       .  A
O373       Co378   2.044       .  S
O374        C384   1.267       .  A
O374       Co377   2.041       .  S
O375        C382   1.241       .  A
O375       Co380   1.924       .  S
O376        C383   1.257       .  A
O376       Co379   1.959       .  S
Co377       O381   2.027       .  S
Co378       O381   2.085       .  S
Co379       O381   2.084       .  S
Co380       O381   2.074       .  S
C382        C611   1.496       .  S
C383       C1056   1.495       .  S
C384       C1072   1.495       .  S
C385        C659   1.486       .  S
O386        C394   1.286       .  A
O386       Co406   2.004       .  S
O387        C395   1.259       .  A
O387       Co407   1.976       .  S
O388        C396   1.255       .  A
O388       Co408   1.936       .  S
O389        C397   1.274       .  A
O389       Co409   1.981       .  S
O390        C396   1.279       .  A
O390       Co407   2.031       .  S
O391        C397   1.286       .  A
O391       Co406   2.009       .  S
O392        C395   1.266       .  A
O392       Co409   2.029       .  S
O393        C394   1.279       .  A
O393       Co408   2.026       .  S
C394        C640   1.484       .  S
C395        C851   1.479       .  S
C396        C672   1.480       .  S
C397        C883   1.477       .  S
O398        C411   1.268       .  A
O398       Co406   1.993       .  S
O399        C412   1.269       .  A
O399       Co407   1.841       .  S
O400        C413   1.276       .  A
O400       Co408   1.979       .  S
O401        C414   1.279       .  A
O401       Co409   1.878       .  S
O402        C414   1.312       .  A
O402       Co407   2.130       .  S
O403        C413   1.273       .  A
O403       Co406   1.992       .  S
O404        C411   1.275       .  A
O404       Co409   2.006       .  S
O405        C412   1.322       .  A
O405       Co408   2.150       .  S
Co406       O410   2.022       .  S
Co407       O410   1.962       .  S
Co408       O410   2.011       .  S
Co409       O410   1.891       .  S
C411        C995   1.478       .  S
C412        C467   1.486       .  S
C413       C1011   1.496       .  S
C414        C419   1.482       .  S
C415        C416   1.411       .  A
C415        C420   1.401       .  A
C415        H422   1.083       .  S
C416        C417   1.423       .  A
C417        C418   1.411       .  A
C417        C424   1.509       .  S
C418        C419   1.405       .  A
C418        H423   1.084       .  S
C419        C420   1.406       .  A
C420        C421   1.506       .  S
C421        H425   1.111       .  S
C421        H426   1.110       .  S
C421        H427   1.101       .  S
C424        H428   1.110       .  S
C424        H429   1.106       .  S
C424        H430   1.111       .  S
C431        C432   1.407       .  A
C431        C436   1.418       .  A
C431        H438   1.084       .  S
C432        C433   1.422       .  A
C433        C434   1.403       .  A
C433        C440   1.511       .  S
C434        C435   1.404       .  A
C434        H439   1.078       .  S
C435        C436   1.425       .  A
C436        C437   1.507       .  S
C437        H441   1.111       .  S
C437        H442   1.110       .  S
C437        H443   1.107       .  S
C440        H444   1.111       .  S
C440        H445   1.107       .  S
C440        H446   1.111       .  S
C447        C448   1.410       .  A
C447        C452   1.404       .  A
C447        H454   1.079       .  S
C448        C449   1.427       .  A
C449        C450   1.395       .  A
C449        C456   1.503       .  S
C450        C451   1.391       .  A
C450        H455   1.085       .  S
C451        C452   1.408       .  A
C452        C453   1.503       .  S
C453        H457   1.100       .  S
C453        H458   1.110       .  S
C453        H459   1.111       .  S
C456        H460   1.111       .  S
C456        H461   1.105       .  S
C456        H462   1.111       .  S
C463        C464   1.404       .  A
C463        C468   1.414       .  A
C463        H470   1.084       .  S
C464        C465   1.411       .  A
C465        C466   1.397       .  A
C465        C472   1.510       .  S
C466        C467   1.407       .  A
C466        H471   1.084       .  S
C467        C468   1.420       .  A
C468        C469   1.503       .  S
C469        H473   1.110       .  S
C469        H474   1.104       .  S
C469        H475   1.109       .  S
C472        H476   1.109       .  S
C472        H477   1.110       .  S
C472        H478   1.111       .  S
C479        C480   1.406       .  A
C479        C484   1.415       .  A
C479        H486   1.084       .  S
C480        C481   1.415       .  A
C481        C482   1.397       .  A
C481        C488   1.512       .  S
C482        C483   1.399       .  A
C482        H487   1.075       .  S
C483        C484   1.419       .  A
C484        C485   1.506       .  S
C485        H489   1.111       .  S
C485        H490   1.108       .  S
C485        H491   1.110       .  S
C488        H492   1.110       .  S
C488        H493   1.107       .  S
C488        H494   1.106       .  S
C495        C496   1.390       .  A
C495        C500   1.401       .  A
C495        H502   1.085       .  S
C496        C497   1.418       .  A
C497        C498   1.416       .  A
C497        C504   1.506       .  S
C498        C499   1.407       .  A
C498        H503   1.083       .  S
C499        C500   1.439       .  A
C500        C501   1.514       .  S
C501        H505   1.111       .  S
C501        H506   1.106       .  S
C501        H507   1.110       .  S
C504        H508   1.110       .  S
C504        H509   1.109       .  S
C504        H510   1.111       .  S
C511        C512   1.403       .  A
C511        C516   1.396       .  A
C511        H518   1.079       .  S
C512        C513   1.410   1_455  A
C513        C514   1.399       .  A
C513        C520   1.507       .  S
C514        C515   1.407   1_655  A
C514        H519   1.084       .  S
C515        C516   1.411       .  A
C516        C517   1.507       .  S
C517        H521   1.111   1_455  S
C517        H522   1.108       .  S
C517        H523   1.110       .  S
C520        H524   1.110       .  S
C520        H525   1.108       .  S
C520        H526   1.110   1_655  S
C527        C528   1.401   1_565  A
C527        C532   1.405       .  A
C527        H534   1.084       .  S
C528        C529   1.411       .  A
C529        C530   1.399       .  A
C529        C536   1.507       .  S
C530        C531   1.409   1_545  A
C530        H535   1.084       .  S
C531        C532   1.423       .  A
C532        C533   1.508       .  S
C533        H537   1.109       .  S
C533        H538   1.110       .  S
C533        H539   1.108       .  S
C536        H540   1.108   1_655  S
C536        H541   1.109       .  S
C536        H542   1.110       .  S
C543        C544   1.403       .  A
C543        C548   1.387       .  A
C543        H550   1.078       .  S
C544        C545   1.412       .  A
C545        C546   1.402       .  A
C545        C552   1.506       .  S
C546        C547   1.406       .  A
C546        H551   1.084       .  S
C547        C548   1.406       .  A
C548        C549   1.505       .  S
C549        H553   1.110       .  S
C549        H554   1.105   1_655  S
C549        H555   1.109       .  S
C552        H556   1.107       .  S
C552        H557   1.107       .  S
C552        H558   1.110       .  S
C559        C560   1.401   1_655  A
C559        C564   1.401       .  A
C559        H566   1.085       .  S
C560        C561   1.413       .  A
C561        C562   1.401       .  A
C561        C568   1.506       .  S
C562        C563   1.408       .  A
C562        H567   1.084       .  S
C563        C564   1.420   1_455  A
C564        C565   1.510       .  S
C565        H569   1.111       .  S
C565        H570   1.106       .  S
C565        H571   1.110       .  S
C568        H572   1.106       .  S
C568        H573   1.110       .  S
C568        H574   1.109       .  S
C575        C576   1.404       .  A
C575        C580   1.397       .  A
C575        H582   1.082       .  S
C576        C577   1.415       .  A
C577        C578   1.400       .  A
C577        C584   1.505       .  S
C578        C579   1.400       .  A
C578        H583   1.084       .  S
C579        C580   1.411       .  A
C580        C581   1.508       .  S
C581        H585   1.111       .  S
C581        H586   1.111       .  S
C581        H587   1.109   1_545  S
C584        H588   1.107       .  S
C584        H589   1.110       .  S
C584        H590   1.110       .  S
C591        C592   1.405       .  A
C591        C596   1.400       .  A
C591        H598   1.082       .  S
C592        C593   1.410       .  A
C593        C594   1.398       .  A
C593        C600   1.506       .  S
C594        C595   1.418       .  A
C594        H599   1.079       .  S
C595        C596   1.420       .  A
C596        C597   1.507       .  S
C597        H601   1.109       .  S
C597        H602   1.109       .  S
C597        H603   1.110       .  S
C600        H604   1.107       .  S
C600        H605   1.110       .  S
C600        H606   1.110       .  S
C607        C608   1.413       .  A
C607        C612   1.417       .  A
C607        H614   1.079       .  S
C608        C609   1.433       .  A
C609        C610   1.410       .  A
C609        C616   1.506       .  S
C610        C611   1.400       .  A
C610        H615   1.084       .  S
C611        C612   1.416       .  A
C612        C613   1.501       .  S
C613        H617   1.111       .  S
C613        H618   1.096       .  S
C613        H619   1.110       .  S
C616        H620   1.111       .  S
C616        H621   1.106       .  S
C616        H622   1.111       .  S
C623        C624   1.412       .  A
C623        C628   1.424       .  A
C623        H630   1.083       .  S
C624        C625   1.406       .  A
C625        C626   1.401       .  A
C625        C632   1.509       .  S
C626        C627   1.413       .  A
C626        H631   1.076       .  S
C627        C628   1.420       .  A
C628        C629   1.504       .  S
C629        H633   1.111       .  S
C629        H634   1.109       .  S
C629        H635   1.110       .  S
C632        H636   1.110       .  S
C632        H637   1.110       .  S
C632        H638   1.110       .  S
C639        C640   1.407       .  A
C639        C644   1.416       .  A
C639        H646   1.084       .  S
C640        C641   1.402       .  A
C641        C642   1.405       .  A
C641        C648   1.504       .  S
C642        C643   1.422       .  A
C642        H647   1.081       .  S
C643        C644   1.427       .  A
C644        C645   1.507       .  S
C645        H649   1.111       .  S
C645        H650   1.110       .  S
C645        H651   1.108       .  S
C648        H652   1.110       .  S
C648        H653   1.105       .  S
C648        H654   1.110       .  S
C655        C656   1.409       .  A
C655        C660   1.414       .  A
C655        H662   1.084       .  S
C656        C657   1.411       .  A
C657        C658   1.393       .  A
C657        C664   1.512       .  S
C658        C659   1.407       .  A
C658        H663   1.079       .  S
C659        C660   1.413       .  A
C660        C661   1.506       .  S
C661        H665   1.111       .  S
C661        H666   1.110       .  S
C661        H667   1.108       .  S
C664        H668   1.107       .  S
C664        H669   1.110       .  S
C664        H670   1.111       .  S
C671        C672   1.405       .  A
C671        C676   1.407       .  A
C671        H678   1.084       .  S
C672        C673   1.427       .  A
C673        C674   1.395       .  A
C673        C680   1.514       .  S
C674        C675   1.395       .  A
C674        H679   1.085       .  S
C675        C676   1.412       .  A
C676        C677   1.506       .  S
C677        H681   1.111       .  S
C677        H682   1.110       .  S
C677        H683   1.111       .  S
C680        H684   1.108       .  S
C680        H685   1.106       .  S
C680        H686   1.111       .  S
C687        C688   1.413       .  A
C687        C692   1.394       .  A
C687        H694   1.083       .  S
C688        C689   1.415       .  A
C689        C690   1.407       .  A
C689        C696   1.506       .  S
C690        C691   1.406       .  A
C690        H695   1.084       .  S
C691        C692   1.406       .  A
C692        C693   1.510       .  S
C693        H697   1.111       .  S
C693        H698   1.111       .  S
C693        H699   1.108       .  S
C696        H700   1.110       .  S
C696        H701   1.110       .  S
C696        H702   1.111       .  S
C703        C704   1.398       .  A
C703        C708   1.396       .  A
C703        H710   1.084       .  S
C704        C705   1.412       .  A
C705        C706   1.396       .  A
C705        C712   1.507       .  S
C706        C707   1.404       .  A
C706        H711   1.084       .  S
C707        C708   1.420       .  A
C708        C709   1.510       .  S
C709        H713   1.110       .  S
C709        H714   1.111       .  S
C709        H715   1.106       .  S
C712        H716   1.109       .  S
C712        H717   1.107       .  S
C712        H718   1.110       .  S
C719        C720   1.400       .  A
C719        C724   1.397       .  A
C719        H726   1.083       .  S
C720        C721   1.417       .  A
C721        C722   1.403       .  A
C721        C728   1.507       .  S
C722        C723   1.402       .  A
C722        H727   1.085       .  S
C723        C724   1.416       .  A
C724        C725   1.507       .  S
C725        H729   1.111       .  S
C725        H730   1.106       .  S
C725        H731   1.110       .  S
C728        H732   1.110       .  S
C728        H733   1.108       .  S
C728        H734   1.110       .  S
C735        C736   1.397       .  A
C735        C740   1.395       .  A
C735        H742   1.082       .  S
C736        C737   1.409       .  A
C737        C738   1.395       .  A
C737        C744   1.506       .  S
C738        C739   1.407       .  A
C738        H743   1.084       .  S
C739        C740   1.418       .  A
C740        C741   1.509       .  S
C741        H745   1.111       .  S
C741        H746   1.107       .  S
C741        H747   1.110       .  S
C744        H748   1.110       .  S
C744        H749   1.107       .  S
C744        H750   1.109       .  S
C751        C752   1.398       .  A
C751        C756   1.400       .  A
C751        H758   1.083       .  S
C752        C753   1.411       .  A
C753        C754   1.398       .  A
C753        C760   1.507       .  S
C754        C755   1.408       .  A
C754        H759   1.084       .  S
C755        C756   1.421       .  A
C756        C757   1.509       .  S
C757        H761   1.111       .  S
C757        H762   1.106       .  S
C757        H763   1.111       .  S
C760        H764   1.108       .  S
C760        H765   1.110       .  S
C760        H766   1.110       .  S
C767        C768   1.405       .  A
C767        C772   1.396       .  A
C767        H774   1.081       .  S
C768        C769   1.415       .  A
C769        C770   1.406       .  A
C769        C776   1.507       .  S
C770        C771   1.405       .  A
C770        H775   1.083       .  S
C771        C772   1.409       .  A
C772        C773   1.505       .  S
C773        H777   1.109       .  S
C773        H778   1.110       .  S
C773        H779   1.105       .  S
C776        H780   1.110       .  S
C776        H781   1.106       .  S
C776        H782   1.111       .  S
C783        C784   1.400       .  A
C783        C788   1.396       .  A
C783        H790   1.085       .  S
C784        C785   1.411       .  A
C785        C786   1.396       .  A
C785        C792   1.505       .  S
C786        C787   1.406       .  A
C786        H791   1.084       .  S
C787        C788   1.417       .  A
C788        C789   1.508       .  S
C789        H793   1.111       .  S
C789        H794   1.110       .  S
C789        H795   1.107       .  S
C792        H796   1.110       .  S
C792        H797   1.105       .  S
C792        H798   1.110       .  S
C799        C800   1.399       .  A
C799        C804   1.394       .  A
C799        H806   1.083       .  S
C800        C801   1.424       .  A
C801        C802   1.413       .  A
C801        C808   1.506       .  S
C802        C803   1.407       .  A
C802        H807   1.084       .  S
C803        C804   1.426       .  A
C804        C805   1.508       .  S
C805        H809   1.111       .  S
C805        H810   1.109       .  S
C805        H811   1.104       .  S
C808        H812   1.105       .  S
C808        H813   1.111       .  S
C808        H814   1.111       .  S
C815        C816   1.402       .  A
C815        C820   1.409       .  A
C815        H822   1.082       .  S
C816        C817   1.409       .  A
C817        C818   1.398       .  A
C817        C824   1.502       .  S
C818        C819   1.408       .  A
C818        H823   1.084       .  S
C819        C820   1.421       .  A
C820        C821   1.506       .  S
C821        H825   1.111       .  S
C821        H826   1.111       .  S
C821        H827   1.106       .  S
C824        H828   1.110       .  S
C824        H829   1.109       .  S
C824        H830   1.111       .  S
C831        C832   1.412       .  A
C831        C836   1.414       .  A
C831        H838   1.084       .  S
C832        C833   1.419       .  A
C833        C834   1.401       .  A
C833        C840   1.510       .  S
C834        C835   1.401       .  A
C834        H839   1.077       .  S
C835        C836   1.411       .  A
C836        C837   1.505       .  S
C837        H841   1.111       .  S
C837        H842   1.109       .  S
C837        H843   1.111       .  S
C840        H844   1.105       .  S
C840        H845   1.110       .  S
C840        H846   1.107       .  S
C847        C848   1.410       .  A
C847        C852   1.406       .  A
C847        H854   1.081       .  S
C848        C849   1.426       .  A
C849        C850   1.407       .  A
C849        C856   1.500       .  S
C850        C851   1.395       .  A
C850        H855   1.084       .  S
C851        C852   1.409       .  A
C852        C853   1.502       .  S
C853        H857   1.109       .  S
C853        H858   1.101       .  S
C853        H859   1.110       .  S
C856        H860   1.110       .  S
C856        H861   1.107       .  S
C856        H862   1.111       .  S
C863        C864   1.396       .  A
C863        C868   1.399       .  A
C863        H870   1.085       .  S
C864        C865   1.416       .  A
C865        C866   1.410       .  A
C865        C872   1.506       .  S
C866        C867   1.403       .  A
C866        H871   1.084       .  S
C867        C868   1.420       .  A
C868        C869   1.502       .  S
C869        H873   1.111       .  S
C869        H874   1.106       .  S
C869        H875   1.107       .  S
C872        H876   1.108       .  S
C872        H877   1.110       .  S
C872        H878   1.111       .  S
C879        C880   1.407       .  A
C879        C884   1.403       .  A
C879        H886   1.084       .  S
C880        C881   1.419       .  A
C881        C882   1.410       .  A
C881        C888   1.503       .  S
C882        C883   1.403       .  A
C882        H887   1.084       .  S
C883        C884   1.412       .  A
C884        C885   1.505       .  S
C885        H889   1.110       .  S
C885        H890   1.108       .  S
C885        H891   1.109       .  S
C888        H892   1.106       .  S
C888        H893   1.110       .  S
C888        H894   1.111       .  S
C895        C896   1.397       .  A
C895        C900   1.394       .  A
C895        H902   1.083       .  S
C896        C897   1.413       .  A
C897        C898   1.398       .  A
C897        C904   1.506       .  S
C898        C899   1.403       .  A
C898        H903   1.084       .  S
C899        C900   1.416       .  A
C900        C901   1.508       .  S
C901        H905   1.111       .  S
C901        H906   1.109       .  S
C901        H907   1.110       .  S
C904        H908   1.110       .  S
C904        H909   1.108   1_556  S
C904        H910   1.108       .  S
C911        C912   1.404       .  A
C911        C916   1.408       .  A
C911        H918   1.083       .  S
C912        C913   1.408   1_556  A
C913        C914   1.400   1_554  A
C913        C920   1.506       .  S
C914        C915   1.413       .  A
C914        H919   1.084   1_556  S
C915        C916   1.420       .  A
C916        C917   1.507       .  S
C917        H921   1.111       .  S
C917        H922   1.108       .  S
C917        H923   1.110       .  S
C920        H924   1.110       .  S
C920        H925   1.107       .  S
C920        H926   1.109       .  S
C927        C928   1.396   1_455  A
C927        C932   1.397       .  A
C927        H934   1.084       .  S
C928        C929   1.413       .  A
C929        C930   1.402       .  A
C929        C936   1.505       .  S
C930        C931   1.408   1_655  A
C930        H935   1.084       .  S
C931        C932   1.420       .  A
C932        C933   1.503       .  S
C933        H937   1.111       .  S
C933        H938   1.110       .  S
C933        H939   1.104       .  S
C936        H940   1.110       .  S
C936        H941   1.107   1_554  S
C936        H942   1.110   1_554  S
C943        C944   1.409       .  A
C943        C948   1.402       .  A
C943        H950   1.084       .  S
C944        C945   1.421       .  A
C945        C946   1.409       .  A
C945        C952   1.508       .  S
C946        C947   1.404       .  A
C946        H951   1.083       .  S
C947        C948   1.411       .  A
C948        C949   1.506       .  S
C949        H953   1.110       .  S
C949        H954   1.107       .  S
C949        H955   1.110       .  S
C952        H956   1.107       .  S
C952        H957   1.110       .  S
C952        H958   1.111       .  S
C959        C960   1.398   1_556  A
C959        C964   1.398       .  A
C959        H966   1.083       .  S
C960        C961   1.410       .  A
C961        C962   1.399       .  A
C961        C968   1.506       .  S
C962        C963   1.408       .  A
C962        H967   1.083       .  S
C963        C964   1.419   1_554  A
C964        C965   1.509       .  S
C965        H969   1.111       .  S
C965        H970   1.106       .  S
C965        H971   1.110       .  S
C968        H972   1.110       .  S
C968        H973   1.109       .  S
C968        H974   1.110       .  S
C975        C976   1.398   1_455  A
C975        C980   1.397       .  A
C975        H982   1.081       .  S
C976        C977   1.409       .  A
C977        C978   1.395       .  A
C977        C984   1.507       .  S
C978        C979   1.407       .  A
C978        H983   1.084       .  S
C979        C980   1.417   1_655  A
C980        C981   1.508       .  S
C981        H985   1.111       .  S
C981        H986   1.110       .  S
C981        H987   1.107       .  S
C984        H988   1.108       .  S
C984        H989   1.110       .  S
C984        H990   1.110       .  S
C991        C992   1.412       .  A
C991        C996   1.409       .  A
C991        H998   1.083       .  S
C992        C993   1.427       .  A
C993        C994   1.406       .  A
C993       C1000   1.512       .  S
C994        C995   1.397       .  A
C994        H999   1.077       .  S
C995        C996   1.410       .  A
C996        C997   1.506       .  S
C997       H1001   1.111       .  S
C997       H1002   1.110       .  S
C997       H1003   1.110       .  S
C1000      H1004   1.106       .  S
C1000      H1005   1.110       .  S
C1000      H1006   1.106       .  S
C1007      C1008   1.409       .  A
C1007      C1012   1.414       .  A
C1007      H1014   1.084       .  S
C1008      C1009   1.400       .  A
C1009      C1010   1.392       .  A
C1009      C1016   1.509       .  S
C1010      C1011   1.416       .  A
C1010      H1015   1.083       .  S
C1011      C1012   1.416       .  A
C1012      C1013   1.505       .  S
C1013      H1017   1.111       .  S
C1013      H1018   1.111       .  S
C1013      H1019   1.110       .  S
C1016      H1020   1.110       .  S
C1016      H1021   1.110       .  S
C1016      H1022   1.111       .  S
C1023      C1024   1.409       .  A
C1023      C1028   1.422       .  A
C1023      H1030   1.084       .  S
C1024      C1025   1.412       .  A
C1025      C1026   1.402       .  A
C1025      C1032   1.492       .  S
C1026      C1027   1.406       .  A
C1026      H1031   1.084       .  S
C1027      C1028   1.425       .  A
C1028      C1029   1.505       .  S
C1029      H1033   1.111       .  S
C1029      H1034   1.106       .  S
C1029      H1035   1.110       .  S
C1032      H1036   1.105       .  S
C1032      H1037   1.110       .  S
C1032      H1038   1.108       .  S
C1039      C1040   1.404       .  A
C1039      C1044   1.409       .  A
C1039      H1046   1.084       .  S
C1040      C1041   1.409       .  A
C1041      C1042   1.396       .  A
C1041      C1048   1.509       .  S
C1042      C1043   1.406       .  A
C1042      H1047   1.082       .  S
C1043      C1044   1.421       .  A
C1044      C1045   1.508       .  S
C1045      H1049   1.111       .  S
C1045      H1050   1.110       .  S
C1045      H1051   1.107       .  S
C1048      H1052   1.109       .  S
C1048      H1053   1.110       .  S
C1048      H1054   1.111       .  S
C1055      C1056   1.406       .  A
C1055      C1060   1.397       .  A
C1055      H1062   1.083       .  S
C1056      C1057   1.416       .  A
C1057      C1058   1.420       .  A
C1057      C1064   1.503       .  S
C1058      C1059   1.410       .  A
C1058      H1063   1.083       .  S
C1059      C1060   1.410       .  A
C1060      C1061   1.508       .  S
C1061      H1065   1.111       .  S
C1061      H1066   1.109       .  S
C1061      H1067   1.105       .  S
C1064      H1068   1.110       .  S
C1064      H1069   1.110       .  S
C1064      H1070   1.111       .  S
C1071      C1072   1.405       .  A
C1071      C1076   1.396       .  A
C1071      H1078   1.084       .  S
C1072      C1073   1.415       .  A
C1073      C1074   1.418       .  A
C1073      C1080   1.504       .  S
C1074      C1075   1.413       .  A
C1074      H1079   1.083       .  S
C1075      C1076   1.414       .  A
C1076      C1077   1.506       .  S
C1077      H1081   1.111       .  S
C1077      H1082   1.109       .  S
C1077      H1083   1.107       .  S
C1080      H1084   1.110       .  S
C1080      H1085   1.110       .  S
C1080      H1086   1.111       .  S
C1087      C1088   1.406       .  A
C1087      C1092   1.397       .  A
C1087      H1094   1.085       .  S
C1088      C1089   1.417   1_565  A
C1089      C1090   1.404       .  A
C1089      C1096   1.508       .  S
C1090      C1091   1.402   1_545  A
C1090      H1095   1.084       .  S
C1091      C1092   1.410       .  A
C1092      C1093   1.505       .  S
C1093      H1097   1.110       .  S
C1093      H1098   1.107       .  S
C1093      H1099   1.108       .  S
C1096      H1100   1.110       .  S
C1096      H1101   1.107       .  S
C1096      H1102   1.111       .  S
C1103      C1104   1.407       .  A
C1103      C1108   1.410       .  A
C1103      H1110   1.084       .  S
C1104      C1105   1.422   1_556  A
C1105      C1106   1.405       .  A
C1105      C1112   1.508       .  S
C1106      C1107   1.403   1_554  A
C1106      H1111   1.084       .  S
C1107      C1108   1.417       .  A
C1108      C1109   1.501       .  S
C1109      H1113   1.110       .  S
C1109      H1114   1.109       .  S
C1109      H1115   1.105       .  S
C1112      H1116   1.110       .  S
C1112      H1117   1.108       .  S
C1112      H1118   1.110       .  S
C1119      C1120   1.397   1_556  A
C1119      C1124   1.397       .  A
C1119      H1126   1.082       .  S
C1120      C1121   1.413       .  A
C1121      C1122   1.401       .  A
C1121      C1128   1.507       .  S
C1122      C1123   1.405       .  A
C1122      H1127   1.084       .  S
C1123      C1124   1.419   1_554  A
C1124      C1125   1.509       .  S
C1125      H1129   1.111       .  S
C1125      H1130   1.107       .  S
C1125      H1131   1.110       .  S
C1128      H1132   1.108       .  S
C1128      H1133   1.110       .  S
C1128      H1134   1.110       .  S
C1135      C1136   1.401       .  A
C1135      C1140   1.404       .  A
C1135      H1142   1.084       .  S
C1136      C1137   1.410       .  A
C1137      C1138   1.400       .  A
C1137      C1144   1.506       .  S
C1138      C1139   1.410       .  A
C1138      H1143   1.083       .  S
C1139      C1140   1.421       .  A
C1140      C1141   1.508       .  S
C1141      H1145   1.111       .  S
C1141      H1146   1.110       .  S
C1141      H1147   1.107       .  S
C1144      H1148   1.108       .  S
C1144      H1149   1.107       .  S
C1144      H1150   1.110       .  S
C1151      C1152   1.406       .  A
C1151      C1156   1.399       .  A
C1151      H1158   1.084       .  S
C1152      C1153   1.419       .  A
C1153      C1154   1.398       .  A
C1153      C1160   1.508       .  S
C1154      C1155   1.399       .  A
C1154      H1159   1.085       .  S
C1155      C1156   1.412       .  A
C1156      C1157   1.505       .  S
C1157      H1161   1.109       .  S
C1157      H1162   1.110       .  S
C1157      H1163   1.106   1_554  S
C1160      H1164   1.107       .  S
C1160      H1165   1.110       .  S
C1160      H1166   1.110       .  S
C1167      C1168   1.404       .  A
C1167      C1172   1.408       .  A
C1167      H1174   1.084   1_565  S
C1168      C1169   1.417       .  A
C1169      C1170   1.408       .  A
C1169      C1176   1.505       .  S
C1170      C1171   1.408       .  A
C1170      H1175   1.084       .  S
C1171      C1172   1.420       .  A
C1172      C1173   1.507   1_565  S
C1173      H1177   1.110   1_545  S
C1173      H1178   1.110       .  S
C1173      H1179   1.106       .  S
C1176      H1180   1.110       .  S
C1176      H1181   1.107   1_554  S
C1176      H1182   1.110       .  S
C1183      C1184   1.413       .  A
C1183      C1188   1.423       .  A
C1183      H1190   1.084       .  S
C1184      C1185   1.417       .  A
C1185      C1186   1.401       .  A
C1185      C1192   1.503       .  S
C1186      C1187   1.411       .  A
C1186      H1191   1.082       .  S
C1187      C1188   1.428       .  A
C1188      C1189   1.505       .  S
C1189      H1193   1.111       .  S
C1189      H1194   1.106       .  S
C1189      H1195   1.110       .  S
C1192      H1196   1.107       .  S
C1192      H1197   1.104       .  S
C1192      H1198   1.111       .  S
C1199      C1200   1.401       .  A
C1199      C1204   1.398       .  A
C1199      H1206   1.084       .  S
C1200      C1201   1.424       .  A
C1201      C1202   1.419       .  A
C1201      C1208   1.507       .  S
C1202      C1203   1.409       .  A
C1202      H1207   1.084       .  S
C1203      C1204   1.426       .  A
C1204      C1205   1.509       .  S
C1205      H1209   1.111       .  S
C1205      H1210   1.103       .  S
C1205      H1211   1.109       .  S
C1208      H1212   1.106       .  S
C1208      H1213   1.110       .  S
C1208      H1214   1.111       .  S
C1215      C1216   1.399       .  A
C1215      C1220   1.398       .  A
C1215      H1222   1.083       .  S
C1216      C1217   1.412       .  A
C1217      C1218   1.412       .  A
C1217      C1224   1.504       .  S
C1218      C1219   1.409       .  A
C1218      H1223   1.084       .  S
C1219      C1220   1.422       .  A
C1220      C1221   1.513       .  S
C1221      H1225   1.109       .  S
C1221      H1226   1.110       .  S
C1221      H1227   1.106       .  S
C1224      H1228   1.108       .  S
C1224      H1229   1.110       .  S
C1224      H1230   1.111       .  S
C1231      C1232   1.397       .  A
C1231      C1236   1.407       .  A
C1231      H1238   1.082       .  S
C1232      C1233   1.410       .  A
C1233      C1234   1.402       .  A
C1233      C1240   1.498       .  S
C1234      C1235   1.408       .  A
C1234      H1239   1.080       .  S
C1235      C1236   1.429       .  A
C1236      C1237   1.507       .  S
C1237      H1241   1.111       .  S
C1237      H1242   1.111       .  S
C1237      H1243   1.109       .  S
C1240      H1244   1.101       .  S
C1240      H1245   1.105       .  S
C1240      H1246   1.110       .  S
C1247      C1248   1.414       .  A
C1247      C1252   1.413       .  A
C1247      H1254   1.083       .  S
C1248      C1249   1.416       .  A
C1249      C1250   1.407       .  A
C1249      C1256   1.507       .  S
C1250      C1251   1.404       .  A
C1250      H1255   1.069       .  S
C1251      C1252   1.414       .  A
C1252      C1253   1.506       .  S
C1253      H1257   1.111       .  S
C1253      H1258   1.109       .  S
C1253      H1259   1.110       .  S
C1256      H1260   1.110       .  S
C1256      H1261   1.106       .  S
C1256      H1262   1.103       .  S
C1263      C1264   1.407       .  A
C1263      C1268   1.395       .  A
C1263      H1270   1.068       .  S
C1264      C1265   1.412       .  A
C1265      C1266   1.418       .  A
C1265      C1272   1.503       .  S
C1266      C1267   1.410       .  A
C1266      H1271   1.084       .  S
C1267      C1268   1.402       .  A
C1268      C1269   1.511       .  S
C1269      H1273   1.111       .  S
C1269      H1274   1.108       .  S
C1269      H1275   1.110       .  S
C1272      H1276   1.110       .  S
C1272      H1277   1.110       .  S
C1272      H1278   1.111       .  S
C1279      C1280   1.400       .  A
C1279      C1284   1.397       .  A
C1279      H1286   1.068       .  S
C1280      C1281   1.414       .  A
C1281      C1282   1.413       .  A
C1281      C1288   1.506       .  S
C1282      C1283   1.412       .  A
C1282      H1287   1.084       .  S
C1283      C1284   1.413       .  A
C1284      C1285   1.510       .  S
C1285      H1289   1.107       .  S
C1285      H1290   1.109       .  S
C1285      H1291   1.104       .  S
C1288      H1292   1.110       .  S
C1288      H1293   1.108       .  S
C1288      H1294   1.111       .  S
C1295      C1296   1.403       .  A
C1295      C1300   1.395       .  A
C1295      H1302   1.085       .  S
C1296      C1297   1.414       .  A
C1297      C1298   1.421       .  A
C1297      C1304   1.504       .  S
C1298      C1299   1.410       .  A
C1298      H1303   1.083       .  S
C1299      C1300   1.418       .  A
C1300      C1301   1.511       .  S
C1301      H1305   1.111       .  S
C1301      H1306   1.108       .  S
C1301      H1307   1.110       .  S
C1304      H1308   1.110       .  S
C1304      H1309   1.110       .  S
C1304      H1310   1.111       .  S
C1311      C1312   1.410       .  A
C1311      C1316   1.419       .  A
C1311      H1318   1.083       .  S
C1312      C1313   1.427       .  A
C1313      C1314   1.396       .  A
C1313      C1320   1.506       .  S
C1314      C1315   1.392       .  A
C1314      H1319   1.086       .  S
C1315      C1316   1.415       .  A
C1316      C1317   1.503       .  S
C1317      H1321   1.111       .  S
C1317      H1322   1.110       .  S
C1317      H1323   1.110       .  S
C1320      H1324   1.108       .  S
C1320      H1325   1.108       .  S
C1320      H1326   1.111       .  S
C1327      C1328   1.408       .  A
C1327      C1332   1.399       .  A
C1327      H1334   1.081       .  S
C1328      C1329   1.409       .  A
C1329      C1330   1.417       .  A
C1329      C1336   1.504       .  S
C1330      C1331   1.422       .  A
C1330      H1335   1.083       .  S
C1331      C1332   1.420       .  A
C1332      C1333   1.513       .  S
C1333      H1337   1.111       .  S
C1333      H1338   1.110       .  S
C1333      H1339   1.108       .  S
C1336      H1340   1.108       .  S
C1336      H1341   1.110       .  S
C1336      H1342   1.110       .  S
C1343      C1344   1.415       .  A
C1343      C1348   1.398       .  A
C1343      H1350   1.078       .  S
C1344      C1345   1.417       .  A
C1345      C1346   1.411       .  A
C1345      C1352   1.505       .  S
C1346      C1347   1.410       .  A
C1346      H1351   1.084       .  S
C1347      C1348   1.405       .  A
C1348      C1349   1.509       .  S
C1349      H1353   1.111       .  S
C1349      H1354   1.108       .  S
C1349      H1355   1.110       .  S
C1352      H1356   1.110       .  S
C1352      H1357   1.110       .  S
C1352      H1358   1.111       .  S
C1359      C1360   1.406       .  A
C1359      C1364   1.409       .  A
C1359      H1366   1.084       .  S
C1360      C1361   1.433       .  A
C1361      C1362   1.392       .  A
C1361      C1368   1.514       .  S
C1362      C1363   1.392       .  A
C1362      H1367   1.084       .  S
C1363      C1364   1.417       .  A
C1364      C1365   1.506       .  S
C1365      H1369   1.111       .  S
C1365      H1370   1.110       .  S
C1365      H1371   1.108       .  S
C1368      H1372   1.103       .  S
C1368      H1373   1.096       .  S
C1368      H1374   1.111       .  S
C1375      C1376   1.408       .  A
C1375      C1380   1.419       .  A
C1375      H1382   1.084       .  S
C1376      C1377   1.438       .  A
C1377      C1378   1.407       .  A
C1377      C1384   1.506       .  S
C1378      C1379   1.391       .  A
C1378      H1383   1.085       .  S
C1379      C1380   1.424       .  A
C1380      C1381   1.506       .  S
C1381      H1385   1.110       .  S
C1381      H1386   1.108       .  S
C1381      H1387   1.110       .  S
C1384      H1388   1.104       .  S
C1384      H1389   1.111       .  S
C1384      H1390   1.095       .  S
C1391      C1392   1.412       .  A
C1391      C1396   1.389       .  A
C1391      H1398   1.083       .  S
C1392      C1393   1.414       .  A
C1393      C1394   1.409       .  A
C1393      C1400   1.504       .  S
C1394      C1395   1.405       .  A
C1394      H1399   1.084       .  S
C1395      C1396   1.403       .  A
C1396      C1397   1.511       .  S
C1397      H1401   1.111       .  S
C1397      H1402   1.110       .  S
C1397      H1403   1.109       .  S
C1400      H1404   1.110       .  S
C1400      H1405   1.110       .  S
C1400      H1406   1.111       .  S
C1407      C1408   1.403       .  A
C1407      C1412   1.403       .  A
C1407      H1414   1.080       .  S
C1408      C1409   1.413       .  A
C1409      C1410   1.415       .  A
C1409      C1416   1.505       .  S
C1410      C1411   1.409       .  A
C1410      H1415   1.084       .  S
C1411      C1412   1.419       .  A
C1412      C1413   1.510       .  S
C1413      H1417   1.106       .  S
C1413      H1418   1.111       .  S
C1413      H1419   1.110       .  S
C1416      H1420   1.111       .  S
C1416      H1421   1.110       .  S
C1416      H1422   1.110       .  S
C1423      C1424   1.403       .  A
C1423      C1428   1.396       .  A
C1423      H1430   1.082       .  S
C1424      C1425   1.412       .  A
C1425      C1426   1.408       .  A
C1425      C1432   1.506       .  S
C1426      C1427   1.406       .  A
C1426      H1431   1.084       .  S
C1427      C1428   1.414       .  A
C1428      C1429   1.511       .  S
C1429      H1433   1.107       .  S
C1429      H1434   1.110       .  S
C1429      H1435   1.111       .  S
C1432      H1436   1.110       .  S
C1432      H1437   1.110       .  S
C1432      H1438   1.111       .  S
C1439      C1440   1.411       .  A
C1439      C1444   1.405       .  A
C1439      H1446   1.082       .  S
C1440      C1441   1.419       .  A
C1441      C1442   1.422       .  A
C1441      C1448   1.503       .  S
C1442      C1443   1.410       .  A
C1442      H1447   1.083       .  S
C1443      C1444   1.409       .  A
C1444      C1445   1.510       .  S
C1445      H1449   1.111       .  S
C1445      H1450   1.109       .  S
C1445      H1451   1.110       .  S
C1448      H1452   1.110       .  S
C1448      H1453   1.110       .  S
C1448      H1454   1.111       .  S
C1455      C1456   1.398       .  A
C1455      C1460   1.402       .  A
C1455      H1462   1.073       .  S
C1456      C1457   1.414       .  A
C1457      C1458   1.421       .  A
C1457      C1464   1.503       .  S
C1458      C1459   1.419       .  A
C1458      H1463   1.082       .  S
C1459      C1460   1.421       .  A
C1460      C1461   1.508       .  S
C1461      H1465   1.111       .  S
C1461      H1466   1.106       .  S
C1461      H1467   1.110       .  S
C1464      H1468   1.108       .  S
C1464      H1469   1.110       .  S
C1464      H1470   1.111       .  S
C1471      C1472   1.408       .  A
C1471      C1476   1.413       .  A
C1471      H1478   1.084       .  S
C1472      C1473   1.420       .  A
C1473      C1474   1.402       .  A
C1473      C1480   1.508       .  S
C1474      C1475   1.401       .  A
C1474      H1479   1.085       .  S
C1475      C1476   1.414       .  A
C1476      C1477   1.505       .  S
C1477      H1481   1.111       .  S
C1477      H1482   1.111       .  S
C1477      H1483   1.109       .  S
C1480      H1484   1.111       .  S
C1480      H1485   1.108       .  S
C1480      H1486   1.107       .  S
C1487      C1488   1.398       .  A
C1487      C1492   1.399       .  A
C1487      H1494   1.076       .  S
C1488      C1489   1.413       .  A
C1489      C1490   1.404       .  A
C1489      C1496   1.502       .  S
C1490      C1491   1.403       .  A
C1490      H1495   1.084       .  S
C1491      C1492   1.412       .  A
C1492      C1493   1.508       .  S
C1493      H1497   1.104       .  S
C1493      H1498   1.110       .  S
C1493      H1499   1.106       .  S
C1496      H1500   1.104       .  S
C1496      H1501   1.110       .  S
C1496      H1502   1.111       .  S
C1503      C1504   1.408       .  A
C1503      C1508   1.397       .  A
C1503      H1510   1.084       .  S
C1504      C1505   1.417       .  A
C1505      C1506   1.410       .  A
C1505      C1512   1.504       .  S
C1506      C1507   1.404       .  A
C1506      H1511   1.084       .  S
C1507      C1508   1.409       .  A
C1508      C1509   1.510       .  S
C1509      H1513   1.111       .  S
C1509      H1514   1.108       .  S
C1509      H1515   1.111       .  S
C1512      H1516   1.110       .  S
C1512      H1517   1.109       .  S
C1512      H1518   1.111       .  S
C1519      C1520   1.407       .  A
C1519      C1524   1.400       .  A
C1519      H1526   1.081       .  S
C1520      C1521   1.408       .  A
C1521      C1522   1.422       .  A
C1521      C1528   1.502       .  S
C1522      C1523   1.422       .  A
C1522      H1527   1.083       .  S
C1523      C1524   1.421       .  A
C1524      C1525   1.513       .  S
C1525      H1529   1.110       .  S
C1525      H1530   1.110       .  S
C1525      H1531   1.107       .  S
C1528      H1532   1.110       .  S
C1528      H1533   1.110       .  S
C1528      H1534   1.111       .  S
C1535      C1536   1.400       .  A
C1535      C1540   1.419       .  A
C1535      H1542   1.084       .  S
C1536      C1537   1.424       .  A
C1537      C1538   1.404       .  A
C1537      C1544   1.507       .  S
C1538      C1539   1.403       .  A
C1538      H1543   1.081       .  S
C1539      C1540   1.435       .  A
C1540      C1541   1.504       .  S
C1541      H1545   1.111       .  S
C1541      H1546   1.110       .  S
C1541      H1547   1.104       .  S
C1544      H1548   1.103       .  S
C1544      H1549   1.110       .  S
C1544      H1550   1.111       .  S
C1551      C1552   1.407       .  A
C1551      C1556   1.398       .  A
C1551      H1558   1.085       .  S
C1552      C1553   1.413       .  A
C1553      C1554   1.404       .  A
C1553      C1560   1.507       .  S
C1554      C1555   1.402       .  A
C1554      H1559   1.084       .  S
C1555      C1556   1.407       .  A
C1556      C1557   1.507       .  S
C1557      H1561   1.111       .  S
C1557      H1562   1.110       .  S
C1557      H1563   1.110       .  S
C1560      H1564   1.109       .  S
C1560      H1565   1.110       .  S
C1560      H1566   1.111       .  S
