geometry optimzed in LAMMPS
_audit_creation_date              2020-11-30 
_audit_creation_method            'lammps2cif' 
_symmetry_space_group_name_H-M    'P1' 
_symmetry_Int_Tables_number       1 
_symmetry_cell_setting            triclinic 
loop_ 
_symmetry_equiv_pos_as_xyz 
  x,y,z 
_cell_length_a                    38.103953743757906 
_cell_length_b                    38.051685275668035 
_cell_length_c                    38.06347829948815 
_cell_angle_alpha                 90.02739365332764 
_cell_angle_beta                  90.14884900281525 
_cell_angle_gamma                 89.96929486802121 
loop_ 
_atom_site_label 
_atom_site_type_symbol 
_atom_site_fract_x 
_atom_site_fract_y 
_atom_site_fract_z 
_atom_site_charge 
O1          O  0.71370084  0.70847912  0.20746671    -0.86280
C2          C  0.73121120  0.70113903  0.31213587     0.89740
Mg3        Mg  0.75365434  0.70987721  0.16969569     1.58150
O4          O  0.70977541  0.78643424  0.28431769    -0.86020
O5          O  0.67198256  0.74529752  0.22199182    -0.73350
C6          C  0.87441342  0.81749744  0.23323498     0.94800
O7          O  0.77665352  0.66921570  0.24807203    -0.73160
O8          O  0.86879621  0.79407334  0.21025038    -0.80670
Mg9        Mg  0.71671695  0.66777667  0.24671997     1.57960
C10         C  0.76708769  0.87129691  0.32056299     0.94720
O11         O  0.65715464  0.66040165  0.24653895    -0.78930
H12         H  0.67701241  0.82109730  0.26219133    -0.04270
C13         C  0.81392640  0.76549033  0.29521303     0.89660
O14         O  0.75164078  0.77052569  0.16869588    -0.73440
O15         O  0.71350369  0.70757510  0.28562398    -0.86200
O16         O  0.74671397  0.84705526  0.33183130    -0.79010
C17         C  0.67603652  0.76158290  0.36889050     0.94830
C18         C  0.62947867  0.67408032  0.25926667     0.94690
Mg19       Mg  0.78886892  0.82646806  0.25243094     1.57950
O20         O  0.85031524  0.82864642  0.25364389    -0.78930
O21         O  0.72846047  0.82997622  0.25161961    -0.73180
O22         O  0.66420688  0.74651837  0.34142173    -0.79020
O23         O  0.72278301  0.62412182  0.20678351    -0.80730
O24         O  0.83139058  0.75294793  0.14822039    -0.79050
C25         C  0.70386864  0.81285448  0.26629216     0.89120
O26         O  0.78689120  0.78898846  0.21047265    -0.86190
O27         O  0.78826071  0.78464445  0.28945322    -0.86290
O28         O  0.83097576  0.75092359  0.27039737    -0.73350
Mg29       Mg  0.67140988  0.74542568  0.28170279     1.57970
O30         O  0.70334588  0.78097915  0.36858529    -0.80720
H31         H  0.68164326  0.73012351  0.17195264    -0.04450
O32         O  0.79183229  0.71028827  0.21076342    -0.85990
H33         H  0.82708661  0.67990255  0.23511784    -0.04270
H34         H  0.76146191  0.82206668  0.17846825    -0.04450
C35         C  0.79968354  0.68597418  0.23085856     0.89100
C36         C  0.68847837  0.72729634  0.19939056     0.89690
C37         C  0.76684644  0.79508635  0.18556401     0.89730
H38         H  0.82174204  0.76053588  0.32208146    -0.04430
O39         O  0.74690352  0.72513764  0.32919438    -0.73460
Mg40       Mg  0.82859776  0.75192892  0.20954518     1.58000
H41         H  0.73467284  0.67409682  0.32012964    -0.04450
C42         C  0.74105526  0.62271003  0.17888131     0.94720
O43         O  0.79455634  0.71196797  0.12850937    -0.80690
C44         C  0.81942072  0.73344572  0.12366899     0.94780
O45         O  0.62970614  0.70304507  0.27609465    -0.80670
Mg46       Mg  0.74651481  0.78519840  0.32740442     1.58180
O47         O  0.75461927  0.64991110  0.16506768    -0.79000
O48         O  0.78847901  0.86634054  0.29552586    -0.80700
O49         O  0.71467242  0.20758462  0.71428553    -0.86280
C50         C  0.70132337  0.31082721  0.73617162     0.89740
Mg51       Mg  0.71868862  0.16957128  0.75539647     1.58150
O52         O  0.78638690  0.28817628  0.70958613    -0.86020
O53         O  0.74658791  0.22749707  0.67075028    -0.73350
C54         C  0.82833122  0.24066400  0.87127604     0.94800
O55         O  0.67093510  0.24392968  0.77646729    -0.73160
O56         O  0.80022712  0.22254625  0.87146999    -0.80670
Mg57       Mg  0.67096476  0.24327207  0.71613296     1.57960
C58         C  0.87377427  0.32357269  0.75890509     0.94720
O59         O  0.66578043  0.24245619  0.65421942    -0.78930
H60         H  0.81690483  0.26511618  0.67369000    -0.04270
C61         C  0.77180328  0.29882503  0.81348287     0.89660
O62         O  0.77842370  0.17045767  0.75334167    -0.73440
O63         O  0.70755279  0.28605787  0.71603184    -0.86200
O64         O  0.84571371  0.33610436  0.74578823    -0.79010
C65         C  0.75974245  0.37440678  0.68179565     0.94830
C66         C  0.67665199  0.26286515  0.62982862     0.94690
Mg67       Mg  0.83236776  0.25401721  0.78399451     1.57950
O68         O  0.84088657  0.25423560  0.84346432    -0.78930
O69         O  0.82950732  0.25279153  0.72397004    -0.73180
O70         O  0.74078644  0.34917195  0.67046294    -0.79020
O71         O  0.63081677  0.19949117  0.72116482    -0.80730
O72         O  0.75811321  0.15597919  0.83834090    -0.79050
C73         C  0.81135020  0.26914568  0.70123956     0.89120
O74         O  0.79463222  0.21347642  0.78798986    -0.86190
O75         O  0.79007091  0.29153138  0.78770803    -0.86290
O76         O  0.75534397  0.27546484  0.83047001    -0.73350
Mg77       Mg  0.74372287  0.28797369  0.67366414     1.57970
O78         O  0.78161532  0.37050890  0.70659464    -0.80720
H79         H  0.73796769  0.17562367  0.67973213    -0.04450
O80         O  0.71609134  0.21208827  0.79294149    -0.85990
H81         H  0.68237476  0.23285959  0.82735788    -0.04270
H82         H  0.82912214  0.18102431  0.76545814    -0.04450
C83         C  0.68943961  0.22924308  0.80010389     0.89100
C84         C  0.73286050  0.20235133  0.68790180     0.89690
C85         C  0.80186406  0.18778209  0.76948095     0.89730
H86         H  0.76813511  0.32611721  0.82047925    -0.04430
O87         O  0.72573848  0.32829448  0.75089079    -0.73460
Mg88       Mg  0.75743030  0.21574903  0.83071304     1.58000
H89         H  0.67434031  0.31722494  0.74213963    -0.04450
C90         C  0.63109559  0.17284349  0.74145031     0.94720
O91         O  0.72554728  0.12845168  0.79790337    -0.80690
C92         C  0.74398286  0.12832836  0.82586573     0.94780
O93         O  0.70051235  0.28552503  0.63486471    -0.80670
Mg94       Mg  0.78617425  0.32932895  0.74771372     1.58180
O95         O  0.65892634  0.16181530  0.75643841    -0.79000
O96         O  0.87411553  0.29565230  0.77726159    -0.80700
O97         O  0.78872481  0.79082788  0.71352998    -0.86280
C98         C  0.68563972  0.76671007  0.70515784     0.89740
Mg99       Mg  0.82799158  0.75082630  0.71009990     1.58150
O100        O  0.71366718  0.78826992  0.78979404    -0.86020
O101        O  0.77011410  0.83191744  0.74947029    -0.73350
C102        C  0.77157408  0.62460294  0.81559298     0.94800
O103        O  0.75162796  0.73049428  0.66843777    -0.73160
O104        O  0.79231641  0.63033774  0.79020993    -0.80670
Mg105      Mg  0.75042266  0.79096083  0.67279450     1.57960
C106        C  0.68590904  0.73060222  0.87546783     0.94720
O107        O  0.74955235  0.85223583  0.67210489    -0.78930
H108        H  0.73719270  0.82164072  0.82294484    -0.04270
C109        C  0.70655862  0.68446238  0.76728916     0.89660
O110        O  0.83190672  0.74979968  0.77049886    -0.73440
O111        O  0.71034088  0.78692639  0.71146455    -0.86200
O112        O  0.67287614  0.74954070  0.85105064    -0.79010
C113        C  0.62455219  0.81391542  0.76878484     0.94830
C114        C  0.72967410  0.87613415  0.68462006     0.94690
Mg115      Mg  0.75138491  0.70996140  0.82738853     1.57950
O116        O  0.75239164  0.64872936  0.82876742    -0.78930
O117        O  0.75018138  0.77047946  0.83083226    -0.73180
O118        O  0.64848968  0.82742975  0.74971621    -0.79020
O119        O  0.79140331  0.79273161  0.63081036    -0.80730
O120        O  0.85154633  0.67190593  0.74940776    -0.79050
C121        C  0.73341518  0.79465425  0.81489246     0.89120
O122        O  0.79104308  0.71332349  0.78828827    -0.86190
O123        O  0.71292261  0.70965210  0.78688780    -0.86290
O124        O  0.73065431  0.66877360  0.75034884    -0.73350
Mg125      Mg  0.70966603  0.82740105  0.74990706     1.57970
O126        O  0.63085002  0.78939066  0.79047528    -0.80720
H127        H  0.82145318  0.82445028  0.73727537    -0.04450
O128        O  0.78749084  0.71232708  0.70983197    -0.85990
H129        H  0.76450480  0.67924968  0.67600928    -0.04270
H130        H  0.82435694  0.73666852  0.82161660    -0.04450
C131        C  0.76813157  0.70615627  0.68439083     0.89100
C132        C  0.79463729  0.81608679  0.73320636     0.89690
C133        C  0.81616357  0.73297525  0.79465444     0.89730
H134        H  0.67963943  0.67622436  0.76368246    -0.04430
O135        O  0.67007585  0.74979850  0.72939528    -0.73460
Mg136      Mg  0.79088260  0.67297046  0.74959198     1.58000
H137        H  0.67765447  0.76262077  0.67819015    -0.04450
C138        C  0.81624281  0.77131371  0.62494226     0.94720
O139        O  0.87066449  0.70978379  0.70916408    -0.80690
C140        C  0.87597145  0.68469213  0.73054959     0.94780
O141        O  0.70800495  0.87002873  0.70914035    -0.80670
Mg142      Mg  0.67375758  0.74932107  0.78989673     1.58180
O143        O  0.82901629  0.75161953  0.64891060    -0.79000
O144        O  0.71073861  0.70904518  0.86995325    -0.80700
C145        C  0.49241099  0.37973553  0.20730324     0.05190
C146        C  0.46755126  0.38131322  0.23451010    -0.10960
C147        C  0.47464582  0.36525325  0.26716709     0.02690
C148        C  0.50667078  0.34735902  0.27231351    -0.09490
C149        C  0.53155521  0.34573258  0.24513890     0.05180
C150        C  0.52365047  0.36113782  0.21274922    -0.08910
H151        H  0.44318617  0.39548588  0.23053258     0.10780
H152        H  0.51236655  0.33516481  0.29741609     0.08300
H153        H  0.54201100  0.35829795  0.19123186     0.08150
C154        C  0.35401474  0.25088275  0.53520331     0.05190
C155        C  0.35313595  0.27655491  0.50860344    -0.10960
C156        C  0.37547395  0.27350274  0.47923365     0.02690
C157        C  0.39795829  0.24433327  0.47625879    -0.09490
C158        C  0.39752405  0.21799396  0.50197146     0.05180
C159        C  0.37588989  0.22169599  0.53127366    -0.08910
H160        H  0.33584127  0.29902812  0.51110133     0.10780
H161        H  0.41501353  0.24170009  0.45365731     0.08300
H162        H  0.37600891  0.20140359  0.55127912     0.08150
C163        C  0.40206408  0.37105131  0.34692025     0.05190
C164        C  0.40207487  0.34605961  0.37414119    -0.10960
C165        C  0.37654798  0.34749581  0.40072810     0.02690
C166        C  0.35100497  0.37402382  0.40002145    -0.09490
C167        C  0.35080711  0.39906737  0.37300808     0.05180
C168        C  0.37638172  0.39757531  0.34652449    -0.08910
H169        H  0.42175245  0.32547201  0.37453479     0.10780
H170        H  0.33119948  0.37509705  0.42041206     0.08300
H171        H  0.37615465  0.41685007  0.32555314     0.08150
C172        C  0.21345877  0.49132157  0.38594209     0.05190
C173        C  0.23995430  0.46567287  0.38500099    -0.10960
C174        C  0.27363959  0.47424565  0.37259283     0.02690
C175        C  0.28065365  0.50842315  0.36049205    -0.09490
C176        C  0.25397316  0.53386822  0.35993332     0.05180
C177        C  0.22071025  0.52501997  0.37288556    -0.08910
H178        H  0.23460797  0.43938872  0.39454934     0.10780
H179        H  0.30663642  0.51502754  0.35102829     0.08300
H180        H  0.20022856  0.54464685  0.37305315     0.08150
O181        O  0.93826793  0.47769692  0.49032276    -0.86280
C182        C  0.99341214  0.48790170  0.58030980     0.89740
Mg183      Mg  0.95805506  0.44916963  0.44643862     1.58150
O184        O  0.99202284  0.56277464  0.52702479    -0.86020
O185        O  0.91982695  0.53099569  0.50143573    -0.73350
C186        C  0.12233349  0.50474422  0.42769466     0.94800
O187        O  0.99121257  0.42422469  0.52660824    -0.73160
O188        O  0.10480294  0.47688503  0.42154891    -0.80670
Mg189      Mg  0.93950137  0.45256741  0.54072650     1.57960
C190        C  0.07807095  0.62057583  0.50715642     0.94720
O191        O  0.88560231  0.47845631  0.55712342    -0.78930
H192        H  0.96409281  0.60014571  0.50286964    -0.04270
C193        C  0.07942996  0.50317023  0.51756132     0.89660
O194        O  0.97625362  0.50002631  0.42001262    -0.73440
O195        O  0.96865786  0.49590735  0.56073018    -0.86200
O196        O  0.06190524  0.60754901  0.53327951    -0.79010
C197        C  0.99393277  0.58155952  0.61925713     0.94830
C198        C  0.87548536  0.50606363  0.57365772     0.94690
Mg199      Mg  0.05649843  0.55429593  0.46022327     1.57950
O200        O  0.10893332  0.53126228  0.44301852    -0.78930
O201        O  0.00530700  0.58209567  0.47452947    -0.73180
O202        O  0.96692298  0.56752681  0.60552450    -0.79020
O203        O  0.91188835  0.40326195  0.52110141    -0.80730
O204        O  0.03217133  0.44175658  0.39471497    -0.79050
C205        C  0.98649597  0.58272489  0.50197516     0.89120
O206        O  0.02890221  0.51022015  0.44104880    -0.86190
O207        O  0.05991217  0.52809818  0.51024176    -0.86290
O208        O  0.07944880  0.47506860  0.49962044    -0.73350
Mg209      Mg  0.94599010  0.54696748  0.55342358     1.57970
O210        O  0.02320081  0.58333206  0.60355724    -0.80720
H211        H  0.90328090  0.50219667  0.45969460    -0.04450
O212        O  0.00701212  0.44281181  0.47425630    -0.85990
H213        H  0.03391387  0.40602891  0.50047783    -0.04270
H214        H  0.00724505  0.54005433  0.40359131    -0.04450
C215        C  0.01149659  0.42345417  0.50006531     0.89100
C216        C  0.91953320  0.50319219  0.48299571     0.89690
C217        C  0.00468888  0.51741675  0.42054446     0.89730
H218        H  0.09583828  0.50479701  0.54071835    -0.04430
O219        O  0.02225951  0.50464868  0.58020907    -0.73460
Mg220      Mg  0.05350586  0.45973334  0.44765178     1.58000
H221        H  0.99094902  0.46500886  0.59693194    -0.04450
C222        C  0.91973169  0.38490858  0.49421833     0.94720
O223        O  0.97747595  0.42109918  0.39722443    -0.80690
C224        C  0.00590807  0.42664108  0.38060552     0.94780
O225        O  0.89614173  0.53135773  0.58036171    -0.80670
Mg226      Mg  0.04111652  0.55563314  0.55447443     1.58180
O227        O  0.93740708  0.39725282  0.46866585    -0.79000
O228        O  0.08382947  0.60326341  0.47919408    -0.80700
O229        O  0.54088310  0.96495595  0.46327648    -0.86280
C230        C  0.43838791  0.95013649  0.48550862     0.89740
Mg231      Mg  0.57921049  0.96876472  0.50429738     1.58150
O232        O  0.46001697  0.03574908  0.45946338    -0.86020
O233        O  0.52037127  0.99682763  0.41981452    -0.73350
C234        C  0.50830816  0.07688055  0.62154793     0.94800
O235        O  0.50549940  0.92029315  0.52509078    -0.73160
O236        O  0.52671370  0.04889105  0.62183140    -0.80670
Mg237      Mg  0.50582238  0.92076739  0.46469253     1.57960
C238        C  0.42477744  0.12226078  0.50935746     0.94720
O239        O  0.50637319  0.91643132  0.40261849    -0.78930
H240        H  0.48289388  0.06666311  0.42380282    -0.04270
C241        C  0.45066099  0.02044968  0.56371661     0.89660
O242        O  0.57800672  0.02855425  0.50275682    -0.73440
O243        O  0.46259981  0.95679371  0.46494090    -0.86200
O244        O  0.41238971  0.09403456  0.49655015    -0.79010
C245        C  0.37358025  0.00908481  0.43301369     0.94830
C246        C  0.48580344  0.92730894  0.37825642     0.94690
Mg247      Mg  0.49466475  0.08138010  0.53418011     1.57950
O248        O  0.49469662  0.08934903  0.59363694    -0.78930
O249        O  0.49545741  0.07878277  0.47414280    -0.73180
O250        O  0.39847221  0.99063496  0.42018224    -0.79020
O251        O  0.55002108  0.88084737  0.46934359    -0.80730
O252        O  0.59331349  0.00733764  0.58767339    -0.79050
C253        C  0.47899277  0.06082993  0.45131234     0.89120
O254        O  0.53541837  0.04404066  0.53802415    -0.86190
O255        O  0.45790123  0.03860374  0.53783570    -0.86290
O256        O  0.47402782  0.00394905  0.58072692    -0.73350
Mg257      Mg  0.45995519  0.99355895  0.42294648     1.57970
O258        O  0.37823768  0.03012040  0.45832374    -0.80720
H259        H  0.57233491  0.98876426  0.42868517    -0.04450
O260        O  0.53712331  0.96544931  0.54216305    -0.85990
H261        H  0.51645444  0.93120405  0.57613296    -0.04270
H262        H  0.56739455  0.07907117  0.51572050    -0.04450
C263        C  0.52006287  0.93862166  0.54896714     0.89100
C264        C  0.54575064  0.98334233  0.43692216     0.89690
C265        C  0.56083564  0.05168581  0.51942394     0.89730
H266        H  0.42342390  0.01688126  0.57075605    -0.04430
O267        O  0.42129266  0.97425384  0.50105827    -0.73460
Mg268      Mg  0.53359454  0.00638123  0.58051639     1.58000
H269        H  0.43228724  0.92299710  0.49123537    -0.04450
C270        C  0.57668372  0.88115144  0.48964798     0.94720
O271        O  0.62063349  0.97550167  0.54662916    -0.80690
C272        C  0.62090850  0.99358929  0.57480277     0.94780
O273        O  0.46263380  0.95067774  0.38354376    -0.80670
Mg274      Mg  0.41978720  0.03469133  0.49837234     1.58180
O275        O  0.58743896  0.90897684  0.50484893    -0.79000
O276        O  0.45276040  0.12290779  0.52761441    -0.80700
C277        C  0.62766450  0.65140986  0.59601166     0.05190
C278        C  0.60201249  0.65117626  0.62246582    -0.10960
C279        C  0.60153711  0.62439496  0.64787560     0.02690
C280        C  0.62707393  0.59764375  0.64667909    -0.09490
C281        C  0.65290019  0.59760809  0.62025958     0.05180
C282        C  0.65305237  0.62460567  0.59504756    -0.08910
H283        H  0.58236262  0.67178558  0.62321972     0.10780
H284        H  0.62674636  0.57684185  0.66612644     0.08300
H285        H  0.67277227  0.62463411  0.57455974     0.08150
C286        C  0.50852427  0.61549214  0.78567309     0.05190
C287        C  0.53406867  0.61488913  0.75913505    -0.10960
C288        C  0.52574754  0.62673508  0.72499313     0.02690
C289        C  0.49175459  0.63986495  0.71777133    -0.09490
C290        C  0.46658170  0.64199401  0.74473623     0.05180
C291        C  0.47539653  0.62949270  0.77816685    -0.08910
H292        H  0.55992023  0.60437149  0.76473682     0.10780
H293        H  0.48522662  0.64905510  0.69161915     0.08300
H294        H  0.45589622  0.63024992  0.79880158     0.08150
C295        C  0.60555519  0.78539876  0.49879955     0.05190
C296        C  0.62692939  0.78161604  0.46929037    -0.10960
C297        C  0.64842360  0.75220676  0.46491788     0.02690
C298        C  0.64924484  0.72627182  0.49120309    -0.09490
C299        C  0.62727927  0.72919069  0.52082208     0.05180
C300        C  0.60508171  0.75866599  0.52430307    -0.08910
H301        H  0.62679259  0.80193247  0.44932067     0.10780
H302        H  0.66622409  0.70361073  0.48823430     0.08300
H303        H  0.58817241  0.76114874  0.54702090     0.08150
C304        C  0.77790852  0.48959207  0.59094125     0.05190
C305        C  0.75580827  0.51909773  0.59481537    -0.10960
C306        C  0.72372792  0.51593956  0.61310442     0.02690
C307        C  0.71485904  0.48358832  0.62874641    -0.09490
C308        C  0.73762083  0.45468541  0.62585706     0.05180
C309        C  0.76812915  0.45766811  0.60572434    -0.08910
H310        H  0.76327769  0.54404365  0.58334559     0.10780
H311        H  0.69097166  0.48123264  0.64396234     0.08300
H312        H  0.78543401  0.43517263  0.60298768     0.08150
O313        O  0.53918776  0.53699229  0.03732266    -0.86280
C314        C  0.54841294  0.51523723  0.93443639     0.89740
Mg315      Mg  0.53897222  0.49604200  0.07589903     1.58150
O316        O  0.46479042  0.54300718  0.96006486    -0.86020
O317        O  0.50646469  0.58110181  0.01958504    -0.73350
C318        C  0.42103661  0.38210878  0.01407361     0.94800
O319        O  0.57873420  0.47358014  0.99956591    -0.73160
O320        O  0.44833357  0.38219683  0.03353432    -0.80670
Mg321      Mg  0.58039451  0.53424683  0.99951825     1.57960
C322        C  0.37654062  0.49392682  0.92831074     0.94720
O323        O  0.58743583  0.59411879  0.99917369    -0.78930
H324        H  0.43512698  0.57944348  0.98343819    -0.04270
C325        C  0.47680232  0.43684227  0.95305337     0.89660
O326        O  0.47885760  0.49982917  0.07964172    -0.73440
O327        O  0.54276950  0.53588607  0.95886909    -0.86200
O328        O  0.40465007  0.50597131  0.91514547    -0.79010
C329        C  0.48917018  0.56835112  0.87278504     0.94830
C330        C  0.57612396  0.62136377  0.98345275     0.94690
Mg331      Mg  0.41893525  0.46953796  0.99788333     1.57950
O332        O  0.40957599  0.40968359  0.99887066    -0.78930
O333        O  0.42289241  0.52951647  0.99725002    -0.73180
O334        O  0.50762261  0.58225545  0.89725682    -0.79020
O335        O  0.62134089  0.53200256  0.04106935    -0.80730
O336        O  0.49354263  0.41859431  0.09832389    -0.79050
C337        C  0.44049063  0.55178463  0.97976147     0.89120
O338        O  0.45782893  0.46600131  0.03797166    -0.86190
O339        O  0.46050443  0.46408733  0.95996108    -0.86290
O340        O  0.49229254  0.41910795  0.97668641    -0.73350
Mg341      Mg  0.50702344  0.57945921  0.95905378     1.57970
O342        O  0.46857829  0.54276935  0.87820316    -0.80720
H343        H  0.51732899  0.57101683  0.07084086    -0.04450
O344        O  0.53619583  0.45782150  0.03506167    -0.85990
H345        H  0.56693863  0.42279605  0.01084801    -0.04270
H346        H  0.42684784  0.49103591  0.07214399    -0.04450
C347        C  0.56088893  0.45018327  0.01538520     0.89100
C348        C  0.52129009  0.56338256  0.04377746     0.89690
C349        C  0.45331937  0.48537148  0.06368640     0.89730
H350        H  0.47917932  0.42873059  0.92593876    -0.04430
O351        O  0.52374026  0.49894242  0.91903348    -0.73460
Mg352      Mg  0.49290221  0.42176617  0.03670155     1.58000
H353        H  0.57523628  0.50967966  0.92708267    -0.04450
C354        C  0.62526106  0.51116468  0.06668132     0.94720
O355        O  0.53632331  0.45418889  0.11707348    -0.80690
C356        C  0.51405809  0.42995702  0.12244638     0.94780
O357        O  0.54988807  0.62051271  0.96270229    -0.80670
Mg358      Mg  0.46392648  0.50305445  0.92054803     1.58180
O359        O  0.60010706  0.49257917  0.07863531    -0.79000
O360        O  0.37621342  0.47620470  0.95666050    -0.80700
O361        O  0.47076562  0.51014502  0.55923475    -0.86280
C362        C  0.48246913  0.42080094  0.50358094     0.89740
Mg363      Mg  0.44561333  0.55513907  0.53828923     1.58150
O364        O  0.55893824  0.47088202  0.51147919    -0.86020
O365        O  0.52268962  0.49779547  0.58092732    -0.73350
C366        C  0.51153556  0.57353429  0.37827873     0.94800
O367        O  0.41999457  0.47665827  0.50068891    -0.73160
O368        O  0.48350724  0.58023472  0.39508618    -0.80670
Mg369      Mg  0.44369742  0.46083849  0.55381389     1.57960
C370        C  0.62349898  0.48985082  0.42962093     0.94720
O371        O  0.46298785  0.44228394  0.60803907    -0.78930
H372        H  0.59511843  0.49390416  0.54186710    -0.04270
C373        C  0.50539355  0.48301131  0.42055733     0.89660
O374        O  0.49869122  0.57972761  0.52406231    -0.73440
O375        O  0.48881923  0.44067126  0.52856394    -0.86200
O376        O  0.60893191  0.46419166  0.44537771    -0.79010
C377        C  0.57062581  0.37664470  0.51010022     0.94830
C378        C  0.48878059  0.42624475  0.62218102     0.94690
Mg379      Mg  0.55693061  0.53855410  0.44634210     1.57950
O380        O  0.53727620  0.55716419  0.39216984    -0.78930
O381        O  0.58093717  0.52269601  0.49930561    -0.73180
O382        O  0.55471312  0.39146733  0.53546603    -0.79020
O383        O  0.39338673  0.48098950  0.57794902    -0.80730
O384        O  0.44522866  0.60851723  0.46499607    -0.79050
C385        C  0.57926404  0.49531987  0.51831414     0.89120
O386        O  0.51189828  0.55912639  0.47184897    -0.86190
O387        O  0.52982319  0.48925374  0.44110730    -0.86290
O388        O  0.47812914  0.50218735  0.41923805    -0.73350
Mg389      Mg  0.53786833  0.44516232  0.55606656     1.57970
O390        O  0.57917904  0.39319538  0.48235240    -0.80720
H391        H  0.49378068  0.53995032  0.59591099    -0.04450
O392        O  0.44192161  0.52853252  0.48869736    -0.85990
H393        H  0.40607241  0.50539877  0.45800688    -0.04270
H394        H  0.54158933  0.59482119  0.49647584    -0.04450
C395        C  0.42174347  0.50402868  0.48168426     0.89100
C396        C  0.49521717  0.51667112  0.57968238     0.89690
C397        C  0.51814780  0.57883740  0.49699440     0.89730
H398        H  0.50669973  0.45980610  0.40421347    -0.04430
O399        O  0.50179446  0.41974186  0.47644617    -0.73460
Mg400      Mg  0.46278569  0.55472758  0.44435258     1.58000
H401        H  0.45900104  0.40486452  0.50427683    -0.04450
C402        C  0.37683187  0.50881942  0.56961722     0.94720
O403        O  0.42088749  0.60529273  0.51809065    -0.80690
C404        C  0.42879147  0.62244387  0.49056555     0.94780
O405        O  0.51705879  0.41993096  0.60562430    -0.80670
Mg406      Mg  0.55487249  0.44395057  0.46195203     1.58180
O407        O  0.39155463  0.53449295  0.55406981    -0.79000
O408        O  0.60699593  0.51790041  0.42185144    -0.80700
O409        O  0.05899731  0.97143550  0.01079645    -0.86280
C410        C  0.00495583  0.98229803  0.91985050     0.89740
Mg411      Mg  0.03852564  0.94567046  0.05572192     1.58150
O412        O  0.01105278  0.05909505  0.96979894    -0.86020
O413        O  0.08023393  0.02347621  0.99805259    -0.73350
C414        C  0.87746822  0.00955408  0.07011863     0.94800
O415        O  0.00210013  0.91963263  0.97625247    -0.73160
O416        O  0.89419135  0.98170804  0.07804786    -0.80670
Mg417      Mg  0.05486135  0.94438177  0.96143214     1.57960
C418        C  0.92766398  0.12182444  0.98835506     0.94720
O419        O  0.10877899  0.96482823  0.94470312    -0.78930
H420        H  0.04070658  0.09537373  0.99357445    -0.04270
C421        C  0.92140862  0.00341404  0.98093181     0.89660
O422        O  0.02306391  0.99849149  0.08008935    -0.73440
O423        O  0.02927984  0.98904573  0.94037241    -0.86200
O424        O  0.94375830  0.10805039  0.96245939    -0.79010
C425        C  0.01048268  0.07116411  0.87580759     0.94830
C426        C  0.12325337  0.99040498  0.92876459     0.94690
Mg427      Mg  0.94574572  0.05530084  0.03682089     1.57950
O428        O  0.89183961  0.03504377  0.05395061    -0.78930
O429        O  0.99840202  0.08009015  0.02192282    -0.73180
O430        O  0.03605733  0.05538898  0.89060981    -0.79020
O431        O  0.07980307  0.89471297  0.98203271    -0.80730
O432        O  0.96480094  0.94477960  0.10762013    -0.79050
C433        C  0.01743274  0.07917222  0.99459217     0.89120
O434        O  0.97137700  0.01069214  0.05778388    -0.86190
O435        O  0.94137561  0.02826302  0.98740607    -0.86290
O436        O  0.92010712  0.97626521  0.00032614    -0.73350
Mg437      Mg  0.05614868  0.03844928  0.94482991     1.57970
O438        O  0.98242343  0.07890502  0.89219433    -0.80720
H439        H  0.09476918  0.99536973  0.04095651    -0.04450
O440        O  0.98935483  0.94071477  0.02834923    -0.85990
H441        H  0.95967600  0.90448319  0.00451193    -0.04270
H442        H  0.99413123  0.04090847  0.09429593    -0.04450
C443        C  0.98298511  0.92063834  0.00353746     0.89100
C444        C  0.07893494  0.99627588  0.01736541     0.89690
C445        C  0.99567439  0.01745167  0.07833611     0.89730
H446        H  0.90552393  0.00427819  0.95737332    -0.04430
O447        O  0.97756735  0.00126370  0.91812871    -0.73460
Mg448      Mg  0.94439718  0.96138083  0.05349501     1.58000
H449        H  0.00647377  0.95884111  0.90388776    -0.04450
C450        C  0.07216078  0.87776659  0.00975829     0.94720
O451        O  0.01824431  0.92088810  0.10602531    -0.80690
C452        C  0.99035584  0.92904734  0.12247628     0.94780
O453        O  0.10652675  0.01818545  0.92060608    -0.80670
Mg454      Mg  0.96188597  0.05408260  0.94241199     1.58180
O455        O  0.05600581  0.89179985  0.03544959    -0.79000
O456        O  0.92080705  0.10481408  0.01624442    -0.80700
C457        C  0.78348910  0.99879012  0.40069609     0.05190
C458        C  0.77758175  0.96569764  0.38589436    -0.10960
C459        C  0.74567722  0.95752647  0.36931116     0.02690
C460        C  0.71899538  0.98310589  0.36829202    -0.09490
C461        C  0.72464608  0.01658210  0.38314100     0.05180
C462        C  0.75678560  0.02414069  0.39973828    -0.08910
H463        H  0.79785358  0.94583991  0.38823602     0.10780
H464        H  0.69425584  0.97722266  0.35547358     0.08300
H465        H  0.76115570  0.04973413  0.41147806     0.08150
C466        C  0.59984327  0.12268238  0.35098519     0.05190
C467        C  0.62517521  0.09586558  0.35164692    -0.10960
C468        C  0.65030957  0.09465218  0.37867118     0.02690
C469        C  0.65010041  0.12050840  0.40502112    -0.09490
C470        C  0.62482683  0.14737359  0.40452490     0.05180
C471        C  0.59977160  0.14839748  0.37744049    -0.08910
H472        H  0.62518460  0.07587846  0.33133093     0.10780
H473        H  0.66939859  0.11958304  0.42598777     0.08300
H474        H  0.58012414  0.16902583  0.37707728     0.08150
C475        C  0.46488772  0.13892666  0.25511482     0.05190
C476        C  0.47263241  0.12532488  0.22183396    -0.10960
C477        C  0.50571955  0.11136346  0.21401926     0.02690
C478        C  0.53193189  0.11176283  0.24001091    -0.09490
C479        C  0.52445206  0.12463615  0.27382825     0.05180
C480        C  0.49080454  0.13785122  0.28140512    -0.08910
H481        H  0.45260081  0.12554962  0.20171915     0.10780
H482        H  0.55781281  0.10151079  0.23415419     0.08300
H483        H  0.48499731  0.14774321  0.30746111     0.08150
C484        C  0.63003899  0.24133894  0.54246534     0.05190
C485        C  0.61676301  0.27445994  0.53336087    -0.10960
C486        C  0.60643841  0.28250714  0.49894319     0.02690
C487        C  0.60914229  0.25638632  0.47303255    -0.09490
C488        C  0.62101623  0.22246422  0.48187965     0.05180
C489        C  0.63130160  0.21493275  0.51668414    -0.08910
H490        H  0.61565448  0.29457769  0.55336211     0.10780
H491        H  0.60170390  0.26231129  0.44617229     0.08300
H492        H  0.64127995  0.18910291  0.52335396     0.08150
C493        C  0.25772528  0.04389408  0.62833048     0.05190
C494        C  0.28423074  0.01820858  0.63065760    -0.10960
C495        C  0.27891382  0.98454910  0.61605199     0.02690
C496        C  0.24722206  0.97683468  0.59864961    -0.09490
C497        C  0.22075471  0.00233270  0.59641140     0.05180
C498        C  0.22647430  0.03566485  0.61062676    -0.08910
H499        H  0.30852983  0.02414927  0.64426921     0.10780
H500        H  0.24300390  0.95103505  0.58731597     0.08300
H501        H  0.20640896  0.05557851  0.60718978     0.08150
C502        C  0.37597496  0.85164326  0.59787617     0.05190
C503        C  0.40238477  0.85157976  0.62359917    -0.10960
C504        C  0.40406483  0.87859063  0.64862214     0.02690
C505        C  0.37910712  0.90577411  0.64791535    -0.09490
C506        C  0.35261481  0.90603423  0.62218422     0.05180
C507        C  0.35110110  0.87886691  0.59723718    -0.08910
H508        H  0.42168827  0.83062663  0.62405011     0.10780
H509        H  0.38040297  0.92672226  0.66719593     0.08300
H510        H  0.33076232  0.87902633  0.57725739     0.08150
C511        C  0.53911208  0.86231609  0.74559908     0.05190
C512        C  0.51434824  0.86380212  0.71820614    -0.10960
C513        C  0.48058641  0.87757190  0.72453815     0.02690
C514        C  0.47201062  0.89060264  0.75802208    -0.09490
C515        C  0.49716441  0.89062056  0.78496842     0.05180
C516        C  0.53028157  0.87616460  0.77845341    -0.08910
H517        H  0.52091567  0.85341839  0.69253340     0.10780
H518        H  0.44602847  0.90110139  0.76294509     0.08300
H519        H  0.54947381  0.87514161  0.79941756     0.08150
C520        C  0.38878903  0.71412972  0.50511684     0.05190
C521        C  0.37504137  0.72168598  0.47181541    -0.10960
C522        C  0.36109401  0.75477419  0.46377829     0.02690
C523        C  0.36160654  0.78115562  0.48954095    -0.09490
C524        C  0.37459018  0.77385044  0.52337083     0.05180
C525        C  0.38782219  0.74021314  0.53121517    -0.08910
H526        H  0.37520873  0.70151308  0.45185042     0.10780
H527        H  0.35143223  0.80706735  0.48347309     0.08300
H528        H  0.39790185  0.73458173  0.55726681     0.08150
O529        O  0.52867253  0.01178404  0.94049954    -0.86280
C530        C  0.51814778  0.92158360  0.99570452     0.89740
Mg531      Mg  0.55401374  0.05695482  0.96074694     1.58150
O532        O  0.44136359  0.97132268  0.98895526    -0.86020
O533        O  0.47660731  0.99885883  0.91942880    -0.73350
C534        C  0.49059224  0.07216963  0.12205924     0.94800
O535        O  0.58092325  0.97798797  0.99790789    -0.73160
O536        O  0.51819144  0.07991539  0.10502888    -0.80670
Mg537      Mg  0.55596323  0.96262464  0.94537224     1.57960
C538        C  0.37800656  0.99007665  0.07174285     0.94720
O539        O  0.53558235  0.94519906  0.89174118    -0.78930
H540        H  0.40466120  0.99429071  0.95914991    -0.04270
C541        C  0.49664719  0.98283557  0.07866043     0.89660
O542        O  0.50103079  0.08082925  0.97633092    -0.73440
O543        O  0.51142905  0.94187900  0.97118576    -0.86200
O544        O  0.39218043  0.96441050  0.05558931    -0.79010
C545        C  0.42995675  0.87742335  0.99008515     0.94830
C546        C  0.51008760  0.92906177  0.87733754     0.94690
Mg547      Mg  0.44435494  0.03842022  0.05422135     1.57950
O548        O  0.46492118  0.05591051  0.10803600    -0.78930
O549        O  0.41941838  0.02305986  0.00155266    -0.73180
O550        O  0.44579955  0.89202685  0.96456948    -0.79020
O551        O  0.60525592  0.98326655  0.92010275    -0.80730
O552        O  0.55439427  0.10911857  0.03437459    -0.79050
C553        C  0.42085924  0.99571238  0.98246806     0.89120
O554        O  0.48885152  0.05905052  0.02821573    -0.86190
O555        O  0.47163617  0.98922834  0.05883481    -0.86290
O556        O  0.52387286  0.00209538  0.07957517    -0.73350
Mg557      Mg  0.46207427  0.94594066  0.94407757     1.57970
O558        O  0.42161166  0.89406155  0.01783770    -0.80720
H559        H  0.50470157  0.04149173  0.90436833    -0.04450
O560        O  0.55917713  0.02989492  0.01008000    -0.85990
H561        H  0.59590477  0.00709996  0.03997814    -0.04270
H562        H  0.45841884  0.09497295  0.00486113    -0.04450
C563        C  0.57965890  0.00552709  0.01670347     0.89100
C564        C  0.50382052  0.01810902  0.92046341     0.89690
C565        C  0.48199741  0.07920959  0.00363068     0.89730
H566        H  0.49588578  0.95939530  0.09467908    -0.04430
O567        O  0.49907961  0.91998418  0.02298802    -0.73460
Mg568      Mg  0.53833368  0.05512644  0.05497503     1.58000
H569        H  0.54163725  0.90568989  0.99443788    -0.04450
C570        C  0.62196549  0.01150644  0.92641733     0.94720
O571        O  0.57835219  0.10731427  0.98098626    -0.80690
C572        C  0.57004220  0.12386309  0.00880483     0.94780
O573        O  0.48231535  0.92113295  0.89400770    -0.80670
Mg574      Mg  0.44617049  0.94424621  0.03824453     1.58180
O575        O  0.60807191  0.03742188  0.94243394    -0.79000
O576        O  0.39481057  0.01792552  0.07942771    -0.80700
C577        C  0.60810763  0.21649222  0.99717094     0.05190
C578        C  0.60991152  0.24331433  0.97197968    -0.10960
C579        C  0.62329115  0.27655873  0.98114460     0.02690
C580        C  0.63584034  0.28265257  0.01551389    -0.09490
C581        C  0.63550224  0.25536496  0.04041115     0.05180
C582        C  0.62100604  0.22292683  0.03100984    -0.08910
H583        H  0.60054519  0.23848844  0.94549731     0.10780
H584        H  0.64667396  0.30804654  0.02249123     0.08300
H585        H  0.62053269  0.20209904  0.05030588     0.08150
C586        C  0.62446681  0.35240289  0.90455235     0.05190
C587        C  0.59949906  0.35050161  0.87742316    -0.10960
C588        C  0.59913121  0.37579104  0.85057101     0.02690
C589        C  0.62392651  0.40311732  0.85095393    -0.09490
C590        C  0.64898236  0.40517147  0.87803009     0.05180
C591        C  0.64918666  0.37972948  0.90473685    -0.08910
H592        H  0.58037396  0.32940626  0.87722815     0.10780
H593        H  0.62371575  0.42270777  0.83027763     0.08300
H594        H  0.66851661  0.38122002  0.92564453     0.08150
C595        C  0.46762606  0.35031715  0.75167953     0.05190
C596        C  0.47375361  0.36698841  0.71954806    -0.10960
C597        C  0.50500358  0.38533025  0.71327419     0.02690
C598        C  0.53079930  0.38640458  0.73972641    -0.09490
C599        C  0.52502521  0.36976424  0.77221043     0.05180
C600        C  0.49353901  0.35134442  0.77795592    -0.08910
H601        H  0.45441087  0.36428328  0.69882712     0.10780
H602        H  0.55518770  0.40029427  0.73511900     0.08300
H603        H  0.48906011  0.33824109  0.80281941     0.08150
C604        C  0.74748564  0.53965384  0.86441038     0.05190
C605        C  0.71995229  0.51503951  0.86431463    -0.10960
C606        C  0.72429222  0.48223361  0.88093145     0.02690
C607        C  0.75588347  0.47456663  0.89854858    -0.09490
C608        C  0.78339008  0.49903880  0.89856636     0.05180
C609        C  0.77886535  0.53134383  0.88176310    -0.08910
H610        H  0.69557431  0.52112959  0.85090268     0.10780
H611        H  0.75922656  0.44954819  0.91174965     0.08300
H612        H  0.79972697  0.55065285  0.88327847     0.08150
C613        C  0.39210915  0.78483692  0.00222010     0.05190
C614        C  0.39075712  0.75813127  0.02752135    -0.10960
C615        C  0.37750185  0.72478768  0.01863910     0.02690
C616        C  0.36463965  0.71842139  0.98443673    -0.09490
C617        C  0.36452745  0.74562159  0.95944946     0.05180
C618        C  0.37888545  0.77819690  0.96856184    -0.08910
H619        H  0.40034668  0.76314079  0.05389156     0.10780
H620        H  0.35387093  0.69293606  0.97769533     0.08300
H621        H  0.37894974  0.79897091  0.94918992     0.08150
C622        C  0.53278373  0.65035322  0.24989853     0.05190
C623        C  0.52630719  0.63357213  0.28186970    -0.10960
C624        C  0.49496087  0.61537171  0.28781555     0.02690
C625        C  0.46920859  0.61484511  0.26131474    -0.09490
C626        C  0.47524347  0.63181737  0.22904108     0.05180
C627        C  0.50696866  0.64988511  0.22352974    -0.08910
H628        H  0.54553357  0.63596947  0.30273905     0.10780
H629        H  0.44468351  0.60113008  0.26570891     0.08300
H630        H  0.51169824  0.66313481  0.19879041     0.08150
C631        C  0.35006321  0.59923036  0.12426491     0.05190
C632        C  0.35053268  0.62402554  0.09703143    -0.10960
C633        C  0.37615114  0.65043975  0.09647932     0.02690
C634        C  0.40135779  0.65209800  0.12340870    -0.09490
C635        C  0.40100505  0.62739879  0.15080962     0.05180
C636        C  0.37529936  0.60096494  0.15115592    -0.08910
H637        H  0.33104659  0.62271110  0.07625223     0.10780
H638        H  0.42118563  0.67252521  0.12303201     0.08300
H639        H  0.37498022  0.58178616  0.17221461     0.08150
C640        C  0.25406249  0.46398407  0.13782024     0.05190
C641        C  0.28030755  0.48989383  0.13849604    -0.10960
C642        C  0.27470147  0.52251448  0.12210825     0.02690
C643        C  0.24303218  0.52897589  0.10425057    -0.09490
C644        C  0.21666164  0.50331041  0.10373631     0.05180
C645        C  0.22238714  0.47104295  0.12030527    -0.08910
H646        H  0.30496947  0.48471700  0.15178845     0.10780
H647        H  0.23882025  0.55387462  0.09106950     0.08300
H648        H  0.20246254  0.45087629  0.11799346     0.08150
O649        O  0.03327423  0.54648507  0.03865557    -0.86280
C650        C  0.01999608  0.44210252  0.05294555     0.89740
Mg651      Mg  0.99062079  0.58200170  0.03292761     1.58150
O652        O  0.04490568  0.46525824  0.96741387    -0.86020
O653        O  0.07804050  0.53100628  0.00611795    -0.73350
C654        C  0.88006178  0.50339812  0.92208642     0.94800
O655        O  0.97193568  0.50577038  0.07939769    -0.73160
O656        O  0.87919261  0.52296273  0.94922031    -0.80670
Mg657      Mg  0.03176736  0.51021992  0.08213653     1.57960
C658        C  0.99785331  0.42317177  0.88136062     0.94720
O659        O  0.09169917  0.51337263  0.09142729    -0.78930
H660        H  0.07899863  0.48892413  0.93540754    -0.04270
C661        C  0.94080142  0.44902895  0.98150475     0.89660
O662        O  0.99428434  0.57960717  0.97302293    -0.73440
O663        O  0.03788621  0.46826105  0.04586881    -0.86200
O664        O  0.01210550  0.41238121  0.90969539    -0.79010
C665        C  0.07998419  0.38315382  0.99779703     0.94830
C666        C  0.11991612  0.49941644  0.08002839     0.94690
Mg667      Mg  0.96820496  0.49295797  0.91998598     1.57950
O668        O  0.90835711  0.48959264  0.91072396    -0.78930
O669        O  0.02801545  0.49751980  0.92274882    -0.73180
O670        O  0.09089417  0.41149401  0.01192313    -0.79020
O671        O  0.02246670  0.55337300  0.12169445    -0.80730
O672        O  0.90878692  0.59210379  0.99005158    -0.79050
C673        C  0.05182796  0.48349251  0.94144640     0.89120
O674        O  0.96195350  0.53496656  0.95626043    -0.86190
O675        O  0.96669078  0.45674772  0.96357171    -0.86290
O676        O  0.92188976  0.47228873  0.99605861    -0.73350
Mg677      Mg  0.08115474  0.47112512  0.00953751     1.57970
O678        O  0.05298206  0.38206755  0.97807874    -0.80720
H679        H  0.06489400  0.58165701  0.01602788    -0.04450
O680        O  0.95489800  0.53808918  0.03482126    -0.85990
H681        H  0.92091343  0.51431388  0.06685997    -0.04270
H682        H  0.98483784  0.56742986  0.92203375    -0.04450
C683        C  0.94806218  0.51978912  0.06076622     0.89100
C684        C  0.05915048  0.55424110  0.02072419     0.89690
C685        C  0.97990291  0.56110597  0.94926441     0.89730
H686        H  0.93506339  0.42162096  0.98625286    -0.04430
O687        O  0.00561000  0.42353654  0.02924546    -0.73460
Mg688      Mg  0.91863274  0.53219352  0.99257436     1.58000
H689        H  0.01511473  0.43582164  0.08019528    -0.04450
C690        C  0.00236620  0.58010038  0.12097361     0.94720
O691        O  0.94701417  0.62090242  0.02415355    -0.80690
C692        C  0.92004274  0.62024059  0.00438909     0.94780
O693        O  0.12064497  0.47997755  0.05281465    -0.80670
Mg694      Mg  0.00932100  0.42120335  0.96937369     1.58180
O695        O  0.98793223  0.59112956  0.09280118    -0.79000
O696        O  0.97761809  0.44979473  0.88033414    -0.80700
C697        C  0.90008896  0.12464923  0.64799212     0.05190
C698        C  0.87523900  0.09747642  0.64690301    -0.10960
C699        C  0.84857390  0.09762903  0.62142988     0.02690
C700        C  0.84671841  0.12527308  0.59702732    -0.09490
C701        C  0.87147040  0.15262708  0.59798468     0.05180
C702        C  0.89814819  0.15220230  0.62352205    -0.08910
H703        H  0.87674582  0.07616060  0.66575222     0.10780
H704        H  0.82612480  0.12546014  0.57731611     0.08300
H705        H  0.91736482  0.17319908  0.62431033     0.08150
C706        C  0.03849472  0.13245253  0.73992190     0.05190
C707        C  0.03075063  0.11925572  0.77336305    -0.10960
C708        C  0.99711456  0.10717137  0.78193500     0.02690
C709        C  0.97060655  0.10870376  0.75624659    -0.09490
C710        C  0.97818259  0.12105911  0.72222896     0.05180
C711        C  0.01227831  0.13255699  0.71401149    -0.08910
H712        H  0.05112112  0.11971754  0.79319712     0.10780
H713        H  0.94425021  0.10015379  0.76262444     0.08300
H714        H  0.01798463  0.14279902  0.68808209     0.08150
C715        C  0.71767375  0.99910119  0.59865800     0.05190
C716        C  0.72284717  0.96734104  0.61629321    -0.10960
C717        C  0.75378880  0.96065602  0.63503431     0.02690
C718        C  0.78042268  0.98627100  0.63542431    -0.09490
C719        C  0.77546381  0.01849172  0.61778825     0.05180
C720        C  0.74420453  0.02459505  0.59904083    -0.08910
H721        H  0.70275785  0.94723961  0.61460616     0.10780
H722        H  0.80451329  0.98142827  0.64982674     0.08300
H723        H  0.74030076  0.04925165  0.58531738     0.08150
C724        C  0.87855408  0.29404103  0.51013854     0.05190
C725        C  0.88053015  0.26638762  0.53454398    -0.10960
C726        C  0.86559469  0.23344469  0.52658299     0.02690
C727        C  0.84862287  0.22829243  0.49405312    -0.09490
C728        C  0.84668482  0.25586244  0.46958292     0.05180
C729        C  0.86070421  0.28861999  0.47842116    -0.08910
H730        H  0.89385467  0.27037637  0.55941797     0.10780
H731        H  0.83730792  0.20293949  0.48770012     0.08300
H732        H  0.85691082  0.31044344  0.46055264     0.08150
C733        C  0.99888217  0.09572317  0.27923306     0.05190
C734        C  0.02448612  0.09701342  0.25287693    -0.10960
C735        C  0.01800402  0.11593073  0.22178496     0.02690
C736        C  0.98541810  0.13265170  0.21676065    -0.09490
C737        C  0.95978653  0.13134514  0.24317855     0.05180
C738        C  0.96677096  0.11264548  0.27409905    -0.08910
H739        H  0.04948379  0.08397193  0.25682402     0.10780
H740        H  0.98035986  0.14727306  0.19284439     0.08300
H741        H  0.94681976  0.11071785  0.29427703     0.08150
C742        C  0.14826847  0.25302132  0.96910372     0.05190
C743        C  0.12801347  0.28324710  0.97397816    -0.10960
C744        C  0.10659922  0.28704597  0.00346918     0.02690
C745        C  0.10488976  0.25985316  0.02828023    -0.09490
C746        C  0.12592074  0.22973536  0.02423207     0.05180
C747        C  0.14789857  0.22651476  0.99473707    -0.08910
H748        H  0.12870653  0.30395689  0.95441475     0.10780
H749        H  0.08787496  0.26243563  0.05091520     0.08300
H750        H  0.16391666  0.20321913  0.99133209     0.08150
C751        C  0.14998093  0.09910663  0.12375417     0.05190
C752        C  0.15033069  0.12604663  0.09861245    -0.10960
C753        C  0.12377051  0.15160439  0.09832494     0.02690
C754        C  0.09676439  0.15012737  0.12331511    -0.09490
C755        C  0.09627707  0.12316226  0.14847648     0.05180
C756        C  0.12296425  0.09775696  0.14866613    -0.08910
H757        H  0.17116437  0.12707441  0.07928202     0.10780
H758        H  0.07615208  0.16978547  0.12309355     0.08300
H759        H  0.12261308  0.07687931  0.16804875     0.08150
C760        C  0.24518972  0.96383901  0.13821106     0.05190
C761        C  0.27835466  0.97162848  0.12451133    -0.10960
C762        C  0.28613757  0.00479810  0.11066694     0.02690
C763        C  0.26021909  0.03101446  0.11122498    -0.09490
C764        C  0.22652637  0.02344885  0.12417286     0.05180
C765        C  0.21896623  0.98975089  0.13730301    -0.08910
H766        H  0.29841227  0.95157859  0.12463029     0.10780
H767        H  0.26604689  0.05697712  0.10109292     0.08300
H768        H  0.19300320  0.98391872  0.14730408     0.08150
O769        O  0.21167642  0.21642269  0.70696756    -0.86280
C770        C  0.22857375  0.20140995  0.81073921     0.89740
Mg771      Mg  0.25463356  0.21642378  0.67068062     1.58150
O772        O  0.20751612  0.28824561  0.78901219    -0.86020
O773        O  0.17009304  0.25202411  0.72481030    -0.73350
C774        C  0.37098422  0.32522043  0.74379446     0.94800
O775        O  0.26948659  0.17032154  0.74589814    -0.73160
O776        O  0.37067701  0.29704944  0.72565463    -0.80670
Mg777      Mg  0.20898369  0.17378195  0.74299860     1.57960
C778        C  0.25845572  0.37146025  0.82743624     0.94720
O779        O  0.14745170  0.17139939  0.74043646    -0.78930
H780        H  0.17325811  0.32136603  0.76697058    -0.04270
C781        C  0.31078895  0.26933282  0.80170808     0.89660
O782        O  0.25467882  0.27673688  0.67074444    -0.73440
O783        O  0.20937623  0.20976530  0.78582193    -0.86200
O784        O  0.24482412  0.34352755  0.83967266    -0.79010
C785        C  0.17464193  0.26016374  0.87293636     0.94830
C786        C  0.12272254  0.18395153  0.75927626     0.94690
Mg787      Mg  0.28358017  0.33086177  0.75689444     1.57950
O788        O  0.34340617  0.33799167  0.75770023    -0.78930
O789        O  0.22394924  0.33110659  0.75449177    -0.73180
O790        O  0.16193925  0.24726490  0.84484144    -0.79020
O791        O  0.21090434  0.13500979  0.69923519    -0.80730
O792        O  0.33673276  0.25566892  0.65890253    -0.79050
C793        C  0.20045598  0.31416910  0.77076821     0.89120
O794        O  0.28698130  0.29297598  0.71572892    -0.86190
O795        O  0.28530065  0.28798242  0.79415699    -0.86290
O796        O  0.32799299  0.25286808  0.77847654    -0.73350
Mg797      Mg  0.16915705  0.24897274  0.78525652     1.57970
O798        O  0.20288343  0.27794383  0.87329135    -0.80720
H799        H  0.18089037  0.24272695  0.67344708    -0.04450
O800        O  0.29019068  0.21408590  0.71464394    -0.85990
H801        H  0.32148266  0.17887606  0.73800267    -0.04270
H802        H  0.26638153  0.32752762  0.68191183    -0.04450
C803        C  0.29493580  0.18743001  0.73268447     0.89100
C804        C  0.18722681  0.23685183  0.70051608     0.89690
C805        C  0.26976129  0.30024537  0.68908141     0.89730
H806        H  0.31741813  0.26544396  0.82906538    -0.04430
O807        O  0.24519640  0.22410298  0.82872300    -0.73460
Mg808      Mg  0.32891952  0.25481683  0.71870220     1.58000
H809        H  0.23249637  0.17384949  0.81641820    -0.04450
C810        C  0.23366114  0.13025530  0.67541616     0.94720
O811        O  0.29856127  0.22117214  0.63053975    -0.80690
C812        C  0.32552461  0.24100502  0.63095217     0.94780
O813        O  0.12754295  0.20895454  0.78066785    -0.80670
Mg814      Mg  0.24462115  0.28417988  0.83157910     1.58180
O815        O  0.25451532  0.15461517  0.66533410    -0.79000
O816        O  0.27691021  0.37187088  0.79956684    -0.80700
O817        O  0.71123730  0.21086837  0.21492318    -0.86280
C818        C  0.81475453  0.23171249  0.20305790     0.89740
Mg819      Mg  0.67275259  0.25184316  0.21263260     1.58150
O820        O  0.79005268  0.21246810  0.28946175    -0.86020
O821        O  0.73028506  0.17041714  0.25144474    -0.73350
C822        C  0.73723830  0.37709342  0.31533178     0.94800
O823        O  0.74876212  0.26931399  0.16815886    -0.73160
O824        O  0.71716213  0.37185676  0.28919248    -0.80670
Mg825      Mg  0.74832458  0.20898828  0.17330673     1.57960
C826        C  0.82352910  0.26952464  0.37279994     0.94720
O827        O  0.74763248  0.14746217  0.17307605    -0.78930
H828        H  0.76701948  0.17958209  0.32323593    -0.04270
C829        C  0.79907117  0.31541981  0.26580124     0.89660
O830        O  0.67153730  0.25372258  0.27298080    -0.73440
O831        O  0.78990723  0.21224163  0.21067566    -0.86200
O832        O  0.83628419  0.25325116  0.34660034    -0.79010
C833        C  0.87695576  0.18313587  0.26687896     0.94830
C834        C  0.76722373  0.12344253  0.18596564     0.94690
Mg835      Mg  0.75481420  0.29107574  0.32766583     1.57950
O836        O  0.75521486  0.35251671  0.32954411    -0.78930
O837        O  0.75447834  0.23083139  0.33087072    -0.73180
O838        O  0.85192201  0.16994298  0.24885592    -0.79020
O839        O  0.70595287  0.20855758  0.13272959    -0.80730
O840        O  0.65503727  0.33435470  0.24837806    -0.79050
C841        C  0.77091217  0.20648396  0.31500413     0.89120
O842        O  0.71394265  0.28947122  0.28902691    -0.86190
O843        O  0.79250682  0.29074728  0.28585127    -0.86290
O844        O  0.77511983  0.33105428  0.24863879    -0.73350
Mg845      Mg  0.79081610  0.17275555  0.25010548     1.57970
O846        O  0.87268864  0.20952408  0.28673729    -0.80720
H847        H  0.67871534  0.17873266  0.24068403    -0.04450
O848        O  0.71477148  0.28912857  0.21019793    -0.85990
H849        H  0.73739496  0.32097586  0.17514100    -0.04270
H850        H  0.68108271  0.26762042  0.32358074    -0.04450
C851        C  0.73336218  0.29432392  0.18408516     0.89100
C852        C  0.70554209  0.18632139  0.23548573     0.89690
C853        C  0.68845180  0.27066703  0.29634292     0.89730
H854        H  0.82610605  0.32294665  0.26169323    -0.04430
O855        O  0.83159181  0.24881876  0.22632574    -0.73460
Mg856      Mg  0.71508766  0.32914966  0.24913328     1.58000
H857        H  0.82167660  0.23507658  0.17573843    -0.04450
C858        C  0.68189125  0.23094291  0.12697988     0.94720
O859        O  0.63014033  0.29363574  0.21434392    -0.80690
C860        C  0.62834856  0.32133627  0.23302364     0.94780
O861        O  0.78930782  0.12962072  0.21020735    -0.80670
Mg862      Mg  0.83098069  0.25069882  0.28676060     1.58180
O863        O  0.66973666  0.25085741  0.15111853    -0.79000
O864        O  0.79638195  0.28889581  0.37041282    -0.80700
C865        C  0.13898668  0.74492556  0.03544339     0.05190
C866        C  0.12532934  0.77821026  0.02776738    -0.10960
C867        C  0.11145654  0.78613083  0.99461792     0.02690
C868        C  0.11200626  0.76029687  0.96833561    -0.09490
C869        C  0.12495413  0.72653668  0.97587586     0.05180
C870        C  0.13807136  0.71877952  0.00951339    -0.08910
H871        H  0.12547674  0.79822642  0.04788908     0.10780
H872        H  0.10182220  0.76621609  0.94238483     0.08300
H873        H  0.14803906  0.69271946  0.01529156     0.08150
C874        C  0.14916178  0.59742235  0.87483925     0.05190
C875        C  0.12175706  0.59629052  0.85017416    -0.10960
C876        C  0.09521568  0.62186300  0.85085370     0.02690
C877        C  0.09615877  0.64856710  0.87619472    -0.09490
C878        C  0.12350799  0.64974494  0.90083964     0.05180
C879        C  0.14998589  0.62418472  0.90013787    -0.08910
H880        H  0.12106173  0.57559639  0.83058697     0.10780
H881        H  0.07565873  0.66834337  0.87675991     0.08300
H882        H  0.17110207  0.62505754  0.91928033     0.08150
C883        C  0.99986341  0.60308497  0.71737485     0.05190
C884        C  0.02525788  0.60410916  0.74408273    -0.10960
C885        C  0.01722605  0.61899501  0.77689646     0.02690
C886        C  0.98387145  0.63375556  0.78281113    -0.09490
C887        C  0.95843531  0.63287947  0.75610021     0.05180
C888        C  0.96605596  0.61565041  0.72462535    -0.08910
H889        H  0.05134202  0.59383645  0.73920387     0.10780
H890        H  0.97808387  0.64653024  0.80758417     0.08300
H891        H  0.94508231  0.61247681  0.70572406     0.08150
C892        C  0.25009567  0.46719917  0.85467724     0.05190
C893        C  0.27838144  0.47104996  0.87772767    -0.10960
C894        C  0.28106590  0.50021655  0.89982578     0.02690
C895        C  0.25450026  0.52573763  0.89946488    -0.09490
C896        C  0.22625454  0.52255096  0.87576931     0.05180
C897        C  0.22431523  0.49344383  0.85305824    -0.08910
H898        H  0.29870514  0.45108047  0.87842009     0.10780
H899        H  0.25623754  0.54827328  0.91680742     0.08300
H900        H  0.20246524  0.49077684  0.83496126     0.08150
O901        O  0.19119281  0.76018404  0.22060004    -0.86280
C902        C  0.24571965  0.66974239  0.23215280     0.89740
Mg903      Mg  0.21190170  0.80517757  0.19513833     1.58150
O904        O  0.23887941  0.72050694  0.30852438    -0.86020
O905        O  0.16947849  0.74761777  0.27235595    -0.73350
C906        C  0.37321241  0.81992162  0.25936426     0.94800
O907        O  0.24866595  0.72620922  0.16933515    -0.73160
O908        O  0.35667645  0.82847339  0.23154910    -0.80670
Mg909      Mg  0.19583039  0.71081155  0.19351648     1.57960
C910        C  0.32177614  0.73945255  0.37197836     0.94720
O911        O  0.14181525  0.69271053  0.21297987    -0.78930
H912        H  0.20903369  0.74444631  0.34444522    -0.04270
C913        C  0.32886639  0.73144987  0.25358907     0.89660
O914        O  0.22707810  0.82976553  0.24796672    -0.73440
O915        O  0.22125131  0.69014375  0.23852330    -0.86200
O916        O  0.30550360  0.71376342  0.35798235    -0.79010
C917        C  0.23965830  0.62663656  0.32180212     0.94830
C918        C  0.12781856  0.67649128  0.23864344     0.94690
Mg919      Mg  0.30453253  0.78745193  0.30510305     1.57950
O920        O  0.35841968  0.80397366  0.28472277    -0.78930
O921        O  0.25164828  0.77264890  0.32961321    -0.73180
O922        O  0.21416741  0.64091842  0.30545282    -0.79020
O923        O  0.17108395  0.73134521  0.14372589    -0.80730
O924        O  0.28589755  0.85787790  0.19375880    -0.79050
C925        C  0.23243856  0.74537973  0.32847690     0.89120
O926        O  0.27911753  0.80837913  0.26032833    -0.86190
O927        O  0.30868497  0.73801771  0.27817181    -0.86290
O928        O  0.33045200  0.75077223  0.22641744    -0.73350
Mg929      Mg  0.19408849  0.69484217  0.28769510     1.57970
O930        O  0.26759670  0.64334910  0.32937842    -0.80720
H931        H  0.15478191  0.79009362  0.24370234    -0.04450
O932        O  0.26126510  0.77831133  0.19055375    -0.85990
H933        H  0.29116783  0.75458709  0.15455607    -0.04270
H934        H  0.25584116  0.84464750  0.29033118    -0.04450
C935        C  0.26776899  0.75353395  0.17052587     0.89100
C936        C  0.17085920  0.76671205  0.24504134     0.89690
C937        C  0.25452735  0.82857491  0.26693580     0.89730
H938        H  0.34471832  0.70790445  0.25472055    -0.04430
O939        O  0.27296630  0.66835510  0.25138947    -0.73460
Mg940      Mg  0.30623967  0.80383947  0.21113335     1.58000
H941        H  0.24445004  0.65358832  0.20881172    -0.04450
C942        C  0.17867245  0.75923416  0.12700458     0.94720
O943        O  0.23221995  0.85514465  0.17031520    -0.80690
C944        C  0.26007969  0.87201871  0.17775993     0.94780
O945        O  0.14452496  0.66976204  0.26683217    -0.80670
Mg946      Mg  0.28810183  0.69322927  0.30412806     1.58180
O947        O  0.19471092  0.78491909  0.14125142    -0.79000
O948        O  0.32947224  0.76712321  0.35495748    -0.80700
C949        C  0.74513692  0.03781019  0.13683667     0.05190
C950        C  0.77800268  0.02942820  0.12276989    -0.10960
C951        C  0.78501229  0.99628300  0.10842193     0.02690
C952        C  0.75849033  0.97068293  0.10871251    -0.09490
C953        C  0.72496756  0.97877528  0.12192429     0.05180
C954        C  0.71821509  0.01256025  0.13562157    -0.08910
H955        H  0.79859152  0.04896937  0.12365090     0.10780
H956        H  0.76379238  0.94468530  0.09834176     0.08300
H957        H  0.69257588  0.01877818  0.14620415     0.08150
C958        C  0.64971870  0.90139352  0.12271357     0.05190
C959        C  0.62555169  0.89982337  0.15044225    -0.10960
C960        C  0.60007638  0.87321591  0.15143989     0.02690
C961        C  0.59881147  0.84802301  0.12442019    -0.09490
C962        C  0.62287994  0.84933820  0.09650103     0.05180
C963        C  0.64834378  0.87607773  0.09580798    -0.08910
H964        H  0.62653342  0.91933091  0.17120215     0.10780
H965        H  0.57908465  0.82750993  0.12506782     0.08300
H966        H  0.66697556  0.87723446  0.07435816     0.08150
C967        C  0.63535995  0.75560806  0.95878266     0.05190
C968        C  0.61633477  0.72474576  0.96423876    -0.10960
C969        C  0.59935459  0.71808746  0.99596687     0.02690
C970        C  0.59981473  0.74387132  0.02245578    -0.09490
C971        C  0.61828706  0.77558543  0.01729089     0.05180
C972        C  0.63587160  0.78144669  0.98522777    -0.08910
H973        H  0.61439766  0.70562123  0.94319656     0.10780
H974        H  0.58642526  0.73905824  0.04707197     0.08300
H975        H  0.65040328  0.80557388  0.98117784     0.08150
C976        C  0.46703082  0.85590325  0.24784981     0.05190
C977        C  0.47491485  0.86722621  0.28197463    -0.10960
C978        C  0.50795012  0.88073761  0.29092664     0.02690
C979        C  0.53443275  0.88128712  0.26522675    -0.09490
C980        C  0.52702092  0.87000060  0.23065034     0.05180
C981        C  0.49316908  0.85788670  0.22202103    -0.08910
H982        H  0.45474048  0.86655108  0.30185422     0.10780
H983        H  0.56021794  0.89139150  0.27176338     0.08300
H984        H  0.48730398  0.84967959  0.19536920     0.08150
C985        C  0.85184429  0.59831602  0.38040010     0.05190
C986        C  0.87737919  0.59823545  0.35394391    -0.10960
C987        C  0.90347491  0.62418358  0.35330522     0.02690
C988        C  0.90396224  0.65042751  0.37924359    -0.09490
C989        C  0.87849734  0.65073254  0.40585472     0.05180
C990        C  0.85240624  0.62463046  0.40632198    -0.08910
H991        H  0.87704907  0.57789567  0.33397220     0.10780
H992        H  0.92421313  0.67043313  0.37883582     0.08300
H993        H  0.83274235  0.62468932  0.42686117     0.08150
C994        C  0.03665316  0.63653803  0.25505271     0.05190
C995        C  0.02902780  0.61946975  0.22329325    -0.10960
C996        C  0.99656399  0.60332440  0.21767641     0.02690
C997        C  0.97130056  0.60366700  0.24440410    -0.09490
C998        C  0.97837703  0.62100012  0.27626865     0.05180
C999        C  0.01117501  0.63705006  0.28165528    -0.08910
H1000       H  0.04893157  0.61717213  0.20315934     0.10780
H1001       H  0.94624352  0.59080879  0.24031179     0.08300
H1002       H  0.01680918  0.64998895  0.30641452     0.08150
C1003       C  0.86588758  0.74806633  0.54055756     0.05190
C1004       C  0.86574366  0.72145161  0.51495028    -0.10960
C1005       C  0.88211415  0.72704065  0.48227285     0.02690
C1006       C  0.89926533  0.75916931  0.47563186    -0.09490
C1007       C  0.89934655  0.78580680  0.50122546     0.05180
C1008       C  0.88323461  0.77966396  0.53353652    -0.08910
H1009       H  0.85242132  0.69684657  0.52015615     0.10780
H1010       H  0.91200110  0.76359212  0.45059497     0.08300
H1011       H  0.88489277  0.79960090  0.55382836     0.08150
C1012       C  0.71643565  0.50340722  0.39288172     0.05190
C1013       C  0.72410070  0.47016753  0.37911962    -0.10960
C1014       C  0.75737856  0.46197602  0.36597082     0.02690
C1015       C  0.78399083  0.48746519  0.36746333    -0.09490
C1016       C  0.77655033  0.52130313  0.38055417     0.05180
C1017       C  0.74268496  0.52925583  0.39288164    -0.08910
H1018       H  0.70372903  0.45041413  0.37785211     0.10780
H1019       H  0.80991352  0.48140033  0.35749243     0.08300
H1020       H  0.73690852  0.55532769  0.40280412     0.08150
C1021       C  0.95985467  0.86598376  0.25613893     0.05190
C1022       C  0.96863130  0.88006509  0.22335361    -0.10960
C1023       C  0.00249411  0.89226290  0.21604446     0.02690
C1024       C  0.02821641  0.89025229  0.24247132    -0.09490
C1025       C  0.01958634  0.87729708  0.27602489     0.05180
C1026       C  0.98526752  0.86545385  0.28289407    -0.08910
H1027       H  0.94886300  0.88037248  0.20293487     0.10780
H1028       H  0.05473156  0.89898178  0.23705972     0.08300
H1029       H  0.97875475  0.85477798  0.30845067     0.08150
C1030       C  0.09687597  0.87438366  0.35117307     0.05190
C1031       C  0.09762432  0.84901462  0.37799036    -0.10960
C1032       C  0.12502744  0.84896194  0.40278543     0.02690
C1033       C  0.15160757  0.87429861  0.40068126    -0.09490
C1034       C  0.15100083  0.89957382  0.37394233     0.05180
C1035       C  0.12363451  0.89961387  0.34924695    -0.08910
H1036       H  0.07712553  0.82932180  0.37943825     0.10780
H1037       H  0.17287398  0.87419298  0.41967890     0.08300
H1038       H  0.12322178  0.91916100  0.32852245     0.08150
C1039       C  0.24802306  0.03265231  0.35630495     0.05190
C1040       C  0.28168537  0.02393709  0.36837025    -0.10960
C1041       C  0.28955164  0.99027205  0.38101261     0.02690
C1042       C  0.26343250  0.96435517  0.38057723    -0.09490
C1043       C  0.22935225  0.97280914  0.36904556     0.05180
C1044       C  0.22164280  0.00697763  0.35726368    -0.08910
H1045       H  0.30196013  0.04380962  0.36923049     0.10780
H1046       H  0.26917965  0.93826101  0.39045111     0.08300
H1047       H  0.19526592  0.01349585  0.34872939     0.08150
C1048       C  0.15379871  0.74693208  0.53205433     0.05190
C1049       C  0.14006905  0.71431306  0.52235601    -0.10960
C1050       C  0.12072442  0.71003244  0.49142097     0.02690
C1051       C  0.11752269  0.73831548  0.46811145    -0.09490
C1052       C  0.13252007  0.77098997  0.47653956     0.05180
C1053       C  0.15059810  0.77536583  0.50863951    -0.08910
H1054       H  0.14477627  0.69175155  0.53906148     0.10780
H1055       H  0.10311332  0.73502975  0.44373356     0.08300
H1056       H  0.16177316  0.80066121  0.51543432     0.08150
C1057       C  0.25512768  0.96192979  0.86224128     0.05190
C1058       C  0.22251722  0.97059248  0.87663998    -0.10960
C1059       C  0.21592133  0.00370599  0.89117401     0.02690
C1060       C  0.24269263  0.02905135  0.89086620    -0.09490
C1061       C  0.27607581  0.02070659  0.87740278     0.05180
C1062       C  0.28236539  0.98689537  0.86343467    -0.08910
H1063       H  0.20172864  0.95127090  0.87586687     0.10780
H1064       H  0.23768425  0.05504615  0.90138595     0.08300
H1065       H  0.30786475  0.98045322  0.85265607     0.08150
C1066       C  0.35159359  0.09802819  0.87677179     0.05190
C1067       C  0.37732673  0.09841417  0.85040791    -0.10960
C1068       C  0.40274989  0.12511788  0.84961448     0.02690
C1069       C  0.40236565  0.15158641  0.87529312    -0.09490
C1070       C  0.37680538  0.15150308  0.90177335     0.05180
C1071       C  0.35140681  0.12467190  0.90243594    -0.08910
H1072       H  0.37761875  0.07793152  0.83059351     0.10780
H1073       H  0.42204931  0.17215383  0.87476014     0.08300
H1074       H  0.33164943  0.12447464  0.92288107     0.08150
C1075       C  0.39638330  0.28571593  0.99992997     0.05190
C1076       C  0.39602893  0.26029737  0.97304040    -0.10960
C1077       C  0.37909124  0.22777200  0.97836298     0.02690
C1078       C  0.36302147  0.22067775  0.01082952    -0.09490
C1079       C  0.36344421  0.24592416  0.03773415     0.05180
C1080       C  0.38075514  0.27784395  0.03213392    -0.08910
H1081       H  0.40861416  0.26585783  0.94815888     0.10780
H1082       H  0.35009945  0.19567146  0.01508862     0.08300
H1083       H  0.38332856  0.29642771  0.05354088     0.08150
C1084       C  0.53521895  0.14570746  0.75116771     0.05190
C1085       C  0.53075090  0.12434281  0.72167223    -0.10960
C1086       C  0.50091919  0.10345009  0.71757173     0.02690
C1087       C  0.47527882  0.10317602  0.74395851    -0.09490
C1088       C  0.47893122  0.12515060  0.77350575     0.05180
C1089       C  0.50878841  0.14678354  0.77684568    -0.08910
H1090       H  0.55076218  0.12407142  0.70145632     0.10780
H1091       H  0.45228706  0.08664552  0.74111355     0.08300
H1092       H  0.51179096  0.16369286  0.79957278     0.08150
O1093       O  0.95695483  0.96681936  0.53677930    -0.86280
C1094       C  0.06035985  0.94994178  0.51964688     0.89740
Mg1095     Mg  0.92045523  0.97019424  0.49437048     1.58150
O1096       O  0.04016333  0.03722639  0.54140719    -0.86020
O1097       O  0.97569101  0.00149296  0.57881873    -0.73350
C1098       C  0.99692057  0.07445695  0.37661015     0.94800
O1099       O  0.99457833  0.92107784  0.47731299    -0.73160
O1100       O  0.97738707  0.04728430  0.37730782    -0.80670
Mg1101     Mg  0.99206913  0.92262605  0.53762069     1.57960
C1102       C  0.08036909  0.12032380  0.49092630     0.94720
O1103       O  0.99006107  0.91847297  0.59953517    -0.78930
H1104       H  0.01798736  0.07064990  0.57523554    -0.04270
C1105       C  0.05240038  0.01769529  0.43823750     0.89660
O1106       O  0.92320474  0.03021354  0.49468296    -0.73440
O1107       O  0.03539809  0.95833312  0.53864204    -0.86200
O1108       O  0.09202205  0.09237262  0.50518138    -0.79010
C1109       C  0.12370747  0.00721569  0.57450772     0.94830
C1110       C  0.00912401  0.93100347  0.62431283     0.94690
Mg1111     Mg  0.00963594  0.08082793  0.46432478     1.57950
O1112       O  0.01130876  0.08713415  0.40412468    -0.78930
O1113       O  0.00685696  0.08093518  0.52419068    -0.73180
O1114       O  0.09568944  0.99404953  0.58698038    -0.79020
O1115       O  0.94792394  0.88317344  0.53197724    -0.80730
O1116       O  0.90873756  0.00813799  0.41032780    -0.79050
C1117       C  0.02219510  0.06345679  0.54808827     0.89120
O1118       O  0.96731089  0.04456326  0.46068215    -0.86190
O1119       O  0.04563021  0.03707507  0.46340766    -0.86290
O1120       O  0.02854083  0.00209607  0.42096163    -0.73350
Mg1121     Mg  0.03583014  0.99716904  0.57931924     1.57970
O1122       O  0.12385962  0.02565407  0.54667807    -0.80720
H1123       H  0.92417449  0.99277496  0.56846772    -0.04450
O1124       O  0.96357023  0.96575545  0.45803837    -0.85990
H1125       H  0.98556464  0.93075706  0.42566662    -0.04270
H1126       H  0.93558726  0.08043869  0.48211344    -0.04450
C1127       C  0.98090096  0.93880057  0.45249769     0.89100
C1128       C  0.95106813  0.98674398  0.56176325     0.89690
C1129       C  0.94159666  0.05288763  0.47864335     0.89730
H1130       H  0.07955084  0.01248979  0.43188919    -0.04430
O1131       O  0.07884106  0.97264744  0.50368663    -0.73460
Mg1132     Mg  0.96879641  0.00590661  0.41916081     1.58000
H1133       H  0.06573067  0.92236934  0.51538573    -0.04450
C1134       C  0.92197150  0.88280530  0.51079281     0.94720
O1135       O  0.88052760  0.97661833  0.45092987    -0.80690
C1136       C  0.88077187  0.99461189  0.42275090     0.94780
O1137       O  0.03015626  0.95631831  0.61972032    -0.80670
Mg1138     Mg  0.08272809  0.03277495  0.50461897     1.58180
O1139       O  0.91150262  0.91017501  0.49452760    -0.79000
O1140       O  0.05311547  0.12072936  0.47147672    -0.80700
C1141       C  0.00225052  0.39513149  0.78567965     0.05190
C1142       C  0.97360264  0.37243954  0.78272993    -0.10960
C1143       C  0.96963478  0.35064593  0.75344723     0.02690
C1144       C  0.99529055  0.35077967  0.72708488    -0.09490
C1145       C  0.02390747  0.37401652  0.72946099     0.05180
C1146       C  0.02708635  0.39655194  0.75859522    -0.08910
H1147       H  0.95398775  0.37194726  0.80333843     0.10780
H1148       H  0.99250584  0.33365912  0.70448211     0.08300
H1149       H  0.04909810  0.41448621  0.76054781     0.08150
C1150       C  0.09788166  0.37625176  0.65162467     0.05190
C1151       C  0.12336358  0.40285044  0.65103532    -0.10960
C1152       C  0.14866405  0.40361825  0.62432353     0.02690
C1153       C  0.14841069  0.37755660  0.59815507    -0.09490
C1154       C  0.12292500  0.35089345  0.59864046     0.05180
C1155       C  0.09772758  0.35033169  0.62542351    -0.08910
H1156       H  0.12348217  0.42290847  0.67128456     0.10780
H1157       H  0.16791547  0.37806229  0.57746890     0.08300
H1158       H  0.07800285  0.32979821  0.62584473     0.08150
C1159       C  0.10329085  0.21689724  0.50179340     0.05190
C1160       C  0.10327190  0.24295974  0.52791356    -0.10960
C1161       C  0.12059100  0.27508204  0.52201515     0.02690
C1162       C  0.13722780  0.28125515  0.48965560    -0.09490
C1163       C  0.13710475  0.25528773  0.46343015     0.05180
C1164       C  0.11965738  0.22356492  0.46970623    -0.08910
H1165       H  0.09020779  0.23814957  0.55270891     0.10780
H1166       H  0.15034765  0.30607922  0.48496784     0.08300
H1167       H  0.11747358  0.20416878  0.44898169     0.08150
C1168       C  0.28442855  0.49642237  0.60747122     0.05190
C1169       C  0.25760218  0.47123426  0.60883908    -0.10960
C1170       C  0.22451190  0.48013799  0.62258867     0.02690
C1171       C  0.21857600  0.51423855  0.63589195    -0.09490
C1172       C  0.24590304  0.53906598  0.63600166     0.05180
C1173       C  0.27818315  0.52994006  0.62119243    -0.08910
H1174       H  0.26232052  0.44495480  0.59890112     0.10780
H1175       H  0.19329581  0.52103123  0.64697308     0.08300
H1176       H  0.29903863  0.54919467  0.62110106     0.08150
O1177       O  0.23880015  0.27910071  0.19163712    -0.86280
C1178       C  0.32906405  0.26797901  0.24681616     0.89740
Mg1179     Mg  0.19375369  0.30439563  0.21247308     1.58150
O1180       O  0.27916844  0.19123754  0.23941220    -0.86020
O1181       O  0.25182176  0.22726089  0.17009877    -0.73350
C1182       C  0.17829552  0.23884662  0.37299943     0.94800
O1183       O  0.27277638  0.33085729  0.24923327    -0.73160
O1184       O  0.17148378  0.26694583  0.35622973    -0.80670
Mg1185     Mg  0.28798176  0.30642074  0.19640760     1.57960
C1186       C  0.26089443  0.12661553  0.32120674     0.94720
O1187       O  0.30586938  0.28653588  0.14240371    -0.78930
H1188       H  0.25586225  0.15515682  0.20911708    -0.04270
C1189       C  0.26789032  0.24527331  0.32986230     0.89660
O1190       O  0.16972298  0.25135815  0.22769857    -0.73440
O1191       O  0.30900106  0.26151577  0.22201342    -0.86200
O1192       O  0.28628066  0.14145518  0.30539847    -0.79010
C1193       C  0.37299177  0.17853682  0.24059694     0.94830
C1194       C  0.32223974  0.26091883  0.12840291     0.94690
Mg1195     Mg  0.21215721  0.19332086  0.30487463     1.57950
O1196       O  0.19432977  0.21299325  0.35902123    -0.78930
O1197       O  0.22743607  0.16934864  0.25180831    -0.73180
O1198       O  0.35877032  0.19483238  0.21501612    -0.79020
O1199       O  0.26686661  0.35613976  0.17149895    -0.80730
O1200       O  0.14196252  0.30529887  0.28684484    -0.79050
C1201       C  0.25465675  0.17097514  0.23268482     0.89120
O1202       O  0.19139915  0.23846389  0.27953517    -0.86190
O1203       O  0.26133582  0.22061436  0.30968420    -0.86290
O1204       O  0.24887872  0.27267073  0.33101931    -0.73350
Mg1205     Mg  0.30469448  0.21219871  0.19477292     1.57970
O1206       O  0.35619094  0.17080014  0.26835540    -0.80720
H1207       H  0.20911154  0.25547255  0.15525965    -0.04450
O1208       O  0.22111752  0.30895677  0.26174100    -0.85990
H1209       H  0.24425168  0.34538637  0.29174138    -0.04270
H1210       H  0.15528221  0.20854104  0.25586473    -0.04450
C1211       C  0.24553646  0.32936085  0.26831813     0.89100
C1212       C  0.23248849  0.25443891  0.17138253     0.89690
C1213       C  0.17119287  0.23203268  0.25486031     0.89730
H1214       H  0.29129761  0.24408492  0.34593049    -0.04430
O1215       O  0.33044873  0.24862337  0.27398113    -0.73460
Mg1216     Mg  0.19599903  0.28781439  0.30661839     1.58000
H1217       H  0.34493230  0.29150408  0.24590994    -0.04450
C1218       C  0.23861596  0.37268443  0.17818284     0.94720
O1219       O  0.14389700  0.32909805  0.23334627    -0.80690
C1220       C  0.12747208  0.32154954  0.26140917     0.94780
O1221       O  0.32951381  0.23295400  0.14520147    -0.80670
Mg1222     Mg  0.30624828  0.19549420  0.28876925     1.58180
O1223       O  0.21307467  0.35851944  0.19440505    -0.79000
O1224       O  0.23290023  0.14298394  0.32926341    -0.80700
C1225       C  0.87348429  0.34837125  0.09985659     0.05190
C1226       C  0.84667630  0.37361765  0.10106721    -0.10960
C1227       C  0.84661251  0.39925590  0.12754736     0.02690
C1228       C  0.87355162  0.39977491  0.15268632    -0.09490
C1229       C  0.90039723  0.37460716  0.15156072     0.05180
C1230       C  0.90035529  0.34893338  0.12510959    -0.08910
H1231       H  0.82569581  0.37302226  0.08177005     0.10780
H1232       H  0.87337140  0.41942014  0.17334070     0.08300
H1233       H  0.92093764  0.32925249  0.12440222     0.08150
C1234       C  0.88658139  0.21218257  0.00558822     0.05190
C1235       C  0.86830314  0.21823466  0.97424446    -0.10960
C1236       C  0.85185217  0.25035509  0.96767839     0.02690
C1237       C  0.85253657  0.27670743  0.99340167    -0.09490
C1238       C  0.87058750  0.27100733  0.02514524     0.05180
C1239       C  0.88736323  0.23863971  0.03131292    -0.08910
H1240       H  0.86567610  0.19738151  0.95503390     0.10780
H1241       H  0.83946331  0.30155815  0.98859617     0.08300
H1242       H  0.90109737  0.23414687  0.05588016     0.08150
C1243       C  0.99295231  0.38623205  0.28871752     0.05190
C1244       C  0.96734165  0.38603101  0.26217247    -0.10960
C1245       C  0.97576838  0.37403339  0.22829306     0.02690
C1246       C  0.00972097  0.36163394  0.22104778    -0.09490
C1247       C  0.03511796  0.36037336  0.24775678     0.05180
C1248       C  0.02644703  0.37287658  0.28128416    -0.08910
H1249       H  0.94119011  0.39579750  0.26765319     0.10780
H1250       H  0.01617469  0.35247654  0.19487243     0.08300
H1251       H  0.04605198  0.37242769  0.30180288     0.08150
C1252       C  0.74345595  0.52515394  0.15808177     0.05190
C1253       C  0.71173323  0.51889086  0.14079339    -0.10960
C1254       C  0.70664382  0.48831023  0.12093445     0.02690
C1255       C  0.73371440  0.46339000  0.11887606    -0.09490
C1256       C  0.76588104  0.46963760  0.13597973     0.05180
C1257       C  0.77057355  0.50037279  0.15594289    -0.08910
H1258       H  0.69076401  0.53805834  0.14294094     0.10780
H1259       H  0.73012627  0.43980810  0.10329106     0.08300
H1260       H  0.79535172  0.50531593  0.16909601     0.08150
C1261       C  0.84882275  0.90022188  0.87414498     0.05190
C1262       C  0.85017313  0.87556967  0.90154108    -0.10960
C1263       C  0.87730440  0.85063038  0.90275706     0.02690
C1264       C  0.90302102  0.85035093  0.87648028    -0.09490
C1265       C  0.90176015  0.87493430  0.84909529     0.05180
C1266       C  0.87467400  0.89986347  0.84798580    -0.08910
H1267       H  0.83021615  0.87578755  0.92179860     0.10780
H1268       H  0.92394017  0.83102667  0.87732057     0.08300
H1269       H  0.87366573  0.91886947  0.82678298     0.08150
C1270       C  0.03501997  0.85840086  0.75194816     0.05190
C1271       C  0.02550030  0.86901938  0.71803138    -0.10960
C1272       C  0.99182801  0.88173189  0.71041229     0.02690
C1273       C  0.96663071  0.88251756  0.73716864    -0.09490
C1274       C  0.97583437  0.87223215  0.77150829     0.05180
C1275       C  0.01017727  0.86070621  0.77897441    -0.08910
H1276       H  0.04484655  0.86800564  0.69724160     0.10780
H1277       H  0.94041722  0.89212182  0.73159612     0.08300
H1278       H  0.01723538  0.85276324  0.80540872     0.08150
C1279       C  0.75073725  0.03164344  0.85000972     0.05190
C1280       C  0.71868036  0.02576035  0.86674198    -0.10960
C1281       C  0.71225170  0.99451291  0.88507534     0.02690
C1282       C  0.73839304  0.96848804  0.88601252    -0.09490
C1283       C  0.77074966  0.97409975  0.86925390     0.05180
C1284       C  0.77671835  0.00555504  0.85087148    -0.08910
H1285       H  0.69818593  0.04533450  0.86417504     0.10780
H1286       H  0.73366814  0.94409107  0.89990993     0.08300
H1287       H  0.80153794  0.00989207  0.83771616     0.08150
C1288       C  0.86942410  0.75580362  0.03942981     0.05190
C1289       C  0.88533379  0.72362430  0.03124707    -0.10960
C1290       C  0.89960919  0.71739999  0.99808744     0.02690
C1291       C  0.89893206  0.74413031  0.97277295    -0.09490
C1292       C  0.88303053  0.77657073  0.98053852     0.05180
C1293       C  0.86865652  0.78252726  0.01403242    -0.08910
H1294       H  0.88723525  0.70329102  0.05111213     0.10780
H1295       H  0.91022696  0.73953482  0.94706707     0.08300
H1296       H  0.85619759  0.80743471  0.01998743     0.08150
O1297       O  0.21279295  0.70832569  0.71435453    -0.86280
C1298       C  0.31503765  0.73433712  0.70310309     0.89740
Mg1299     Mg  0.17199372  0.74610284  0.71411295     1.58150
O1300       O  0.28930420  0.71205912  0.78830972    -0.86020
O1301       O  0.23317086  0.66698936  0.74896045    -0.73350
C1302       C  0.23102966  0.87608285  0.81431345     0.94800
O1303       O  0.24655009  0.77067123  0.66920929    -0.73160
O1304       O  0.20837939  0.86966462  0.79060253    -0.80670
Mg1305     Mg  0.24929977  0.71047468  0.67175548     1.57960
C1306       C  0.31753209  0.77016705  0.87342272     0.94720
O1307       O  0.25093378  0.64911362  0.67014301    -0.78930
H1308       H  0.26626086  0.67879505  0.82178218    -0.04270
C1309       C  0.29342419  0.81568775  0.76480416     0.89660
O1310       O  0.17123713  0.74730732  0.77430223    -0.73440
O1311       O  0.29060040  0.71393781  0.70969178    -0.86200
O1312       O  0.33016775  0.75080928  0.84917471    -0.79010
C1313       C  0.37870015  0.68786285  0.76586563     0.94830
C1314       C  0.27090417  0.62519338  0.68267408     0.94690
Mg1315     Mg  0.25164833  0.79074709  0.82658822     1.57950
O1316       O  0.25079746  0.85216075  0.82709504    -0.78930
O1317       O  0.25351602  0.73000672  0.82991928    -0.73180
O1318       O  0.35494568  0.67411249  0.74649815    -0.79020
O1319       O  0.20716043  0.71095511  0.62949159    -0.80730
O1320       O  0.14634898  0.82683597  0.75154653    -0.79050
C1321       C  0.26991960  0.70576216  0.81365689     0.89120
O1322       O  0.21027470  0.78676335  0.78959799    -0.86190
O1323       O  0.28841923  0.79068007  0.78498182    -0.86290
O1324       O  0.26823808  0.83105385  0.74903164    -0.73350
Mg1325     Mg  0.29321505  0.67323419  0.74788371     1.57970
O1326       O  0.37188733  0.71206838  0.78777073    -0.80720
H1327       H  0.18147172  0.67315854  0.73752044    -0.04450
O1328       O  0.21037997  0.78687244  0.71110522    -0.85990
H1329       H  0.23150305  0.82114008  0.67743969    -0.04270
H1330       H  0.17990839  0.76236193  0.82470296    -0.04450
C1331       C  0.22901967  0.79400477  0.68545371     0.89100
C1332       C  0.20796523  0.68237551  0.73332458     0.89690
C1333       C  0.18665056  0.76589675  0.79735971     0.89730
H1334       H  0.32001827  0.82417267  0.75979520    -0.04430
O1335       O  0.33104118  0.75119508  0.72719979    -0.73460
Mg1336     Mg  0.20784777  0.82648988  0.75046462     1.58000
H1337       H  0.32245294  0.73857104  0.67603795    -0.04450
C1338       C  0.17940594  0.72948591  0.62774215     0.94720
O1339       O  0.12826893  0.78452620  0.71520582    -0.80690
C1340       C  0.12223472  0.81122623  0.73413829     0.94780
O1341       O  0.29355449  0.63139397  0.70646148    -0.80670
Mg1342     Mg  0.32843894  0.75157576  0.78779053     1.58180
O1343       O  0.16633209  0.74459961  0.65442392    -0.79000
O1344       O  0.29347577  0.79244134  0.86754820    -0.80700
C1345       C  0.07107478  0.84482677  0.75813801    -0.14370
C1346       C  0.08595350  0.82414397  0.73371563    -0.29550
H1347       H  0.08505830  0.85156826  0.78210659     0.14650
H1348       H  0.07005400  0.81507617  0.71174755     0.15230
C1349       C  0.79792672  0.94770656  0.87114266    -0.11210
C1350       C  0.82095446  0.92591234  0.87273748    -0.12770
C1351       C  0.88074155  0.80336150  0.95380178    -0.11210
C1352       C  0.87885558  0.82518022  0.93082579    -0.12770
C1353       C  0.92811613  0.87436647  0.82197205    -0.10890
C1354       C  0.94999677  0.87355687  0.79909655    -0.12770
C1355       C  0.87191925  0.29839052  0.05134780    -0.11210
C1356       C  0.87285334  0.32129900  0.07330634    -0.12770
C1357       C  0.92739845  0.37457806  0.17817454    -0.11210
C1358       C  0.94954905  0.37442906  0.20091023    -0.12770
C1359       C  0.79435505  0.44492525  0.13243172    -0.11210
C1360       C  0.81827417  0.42428489  0.12974890    -0.12770
C1361       C  0.07109675  0.34719971  0.24049746    -0.14370
C1362       C  0.09065813  0.33209269  0.26586441    -0.29550
H1363       H  0.08161773  0.35007989  0.21415428     0.14650
H1364       H  0.07921505  0.32664751  0.29136926     0.15230
C1365       C  0.26935786  0.58900794  0.66928751    -0.14370
C1366       C  0.24206455  0.57463617  0.65179846    -0.29550
H1367       H  0.29220666  0.57287407  0.67504990     0.14650
H1368       H  0.21757863  0.58894401  0.64874576     0.15230
C1369       C  0.15338763  0.26166649  0.42867927    -0.14370
C1370       C  0.16662405  0.23500075  0.40952437    -0.29550
H1371       H  0.15374435  0.28830682  0.41843231     0.14650
H1372       H  0.16884426  0.20892873  0.42091829     0.15230
C1373       C  0.12236717  0.32416940  0.57161538    -0.11210
C1374       C  0.12145757  0.30172963  0.54910349    -0.12770
C1375       C  0.19703972  0.45390314  0.62344963    -0.11210
C1376       C  0.17485687  0.43114493  0.62383336    -0.12770
C1377       C  0.04993930  0.37484957  0.70199092    -0.11210
C1378       C  0.07180529  0.37555662  0.67906806    -0.12770
C1379       C  0.00952708  0.91612061  0.65982575    -0.14370
C1380       C  0.98471089  0.89611231  0.67480173    -0.29550
H1381       H  0.03237045  0.92335763  0.67544401     0.14650
H1382       H  0.95990880  0.89107252  0.66163317     0.15230
C1383       C  0.08485926  0.18303117  0.50621465    -0.14370
C1384       C  0.10018644  0.15293844  0.49579745    -0.29550
H1385       H  0.05793065  0.18305783  0.51552955     0.14650
H1386       H  0.12789870  0.15261041  0.48910828     0.15230
C1387       C  0.34741746  0.23876871  0.07246817    -0.14370
C1388       C  0.33377854  0.26504726  0.09186773    -0.29550
H1389       H  0.34753271  0.21202319  0.08244015     0.14650
H1390       H  0.33113918  0.29115389  0.08062456     0.15230
C1391       C  0.37713308  0.17877439  0.92842093    -0.11210
C1392       C  0.37813909  0.20145741  0.95078755    -0.12770
C1393       C  0.42948667  0.12525460  0.82265604    -0.11210
C1394       C  0.45204509  0.12538554  0.80031056    -0.12770
C1395       C  0.25944561  0.92658084  0.84596121    -0.14370
C1396       C  0.23266745  0.91242852  0.82747250    -0.29550
H1397       H  0.28370781  0.91208932  0.84983168     0.14650
H1398       H  0.21007663  0.92873171  0.82118107     0.15230
C1399       C  0.30341657  0.04726959  0.87736904    -0.11210
C1400       C  0.32545044  0.07028063  0.87734052    -0.12770
C1401       C  0.17184416  0.75005068  0.56654114    -0.14370
C1402       C  0.16018914  0.73173233  0.59449560    -0.29550
H1403       H  0.19498724  0.76655786  0.56886179     0.14650
H1404       H  0.13536834  0.71776214  0.59315358     0.15230
C1405       C  0.26544844  0.08943258  0.33045248    -0.14370
C1406       C  0.24024876  0.06909273  0.34456452    -0.29550
H1407       H  0.29100627  0.07828779  0.32462428     0.14650
H1408       H  0.21382141  0.07931316  0.34776417     0.15230
C1409       C  0.17866594  0.92530377  0.37177967    -0.11210
C1410       C  0.20190933  0.94678886  0.37034137    -0.12770
C1411       C  0.12665928  0.82242791  0.42987975    -0.11210
C1412       C  0.12925201  0.79969361  0.45191501    -0.12770
C1413       C  0.04619884  0.87555838  0.30314053    -0.11210
C1414       C  0.06894998  0.87455353  0.32535704    -0.12770
C1415       C  0.91739146  0.81985323  0.49593713    -0.14370
C1416       C  0.90215235  0.85004584  0.50636859    -0.29550
H1417       H  0.94410073  0.81989964  0.48601997     0.14650
H1418       H  0.87464541  0.85029221  0.51383889     0.15230
C1419       C  0.87950568  0.67758031  0.43286694    -0.11210
C1420       C  0.88076553  0.70006463  0.45539601    -0.12770
C1421       C  0.92997268  0.62348350  0.32622130    -0.11210
C1422       C  0.95203834  0.62233337  0.30347830    -0.12770
C1423       C  0.82533627  0.57112844  0.38093622    -0.11210
C1424       C  0.80334722  0.54820152  0.38082531    -0.12770
C1425       C  0.55371569  0.87131429  0.20360751    -0.11210
C1426       C  0.57504111  0.87206489  0.18004458    -0.12770
C1427       C  0.62128884  0.82339483  0.06849906    -0.11210
C1428       C  0.61984367  0.80170806  0.04512613    -0.12770
C1429       C  0.69787927  0.95203592  0.12194169    -0.11210
C1430       C  0.67588871  0.92903264  0.12202372    -0.12770
C1431       C  0.09133995  0.66462586  0.23446089    -0.14370
C1432       C  0.07192161  0.65194433  0.26111189    -0.29550
H1433       H  0.08010217  0.66668434  0.20830017     0.14650
H1434       H  0.08217470  0.65254155  0.28776860     0.15230
C1435       C  0.41050658  0.82870503  0.26387413    -0.14370
C1436       C  0.43083158  0.84386781  0.23923306    -0.29550
H1437       H  0.42172798  0.82180466  0.28918484     0.14650
H1438       H  0.42063971  0.84817534  0.21290634     0.15230
C1439       C  0.19914457  0.54899315  0.87488942    -0.11210
C1440       C  0.17632841  0.57102119  0.87449722    -0.12770
C1441       C  0.06706924  0.62086264  0.82548349    -0.11210
C1442       C  0.04386539  0.62018168  0.80383933    -0.12770
C1443       C  0.15305767  0.73756445  0.07102446    -0.14370
C1444       C  0.16831473  0.76315777  0.09012230    -0.29550
H1445       H  0.15030449  0.71126748  0.08176743     0.14650
H1446       H  0.17360381  0.78856623  0.07829788     0.15230
C1447       C  0.12462732  0.69973405  0.94916535    -0.11210
C1448       C  0.12423228  0.67704247  0.92703877    -0.12770
C1449       C  0.76627318  0.08727042  0.17229882    -0.14370
C1450       C  0.74014158  0.07307403  0.15303423    -0.29550
H1451       H  0.78890876  0.07112175  0.17885075     0.14650
H1452       H  0.71581040  0.08733365  0.14875792     0.15230
C1453       C  0.73762542  0.41295897  0.32954435    -0.14370
C1454       C  0.76298459  0.42680980  0.34995811    -0.29550
H1455       H  0.71535631  0.42928773  0.32219077     0.14650
H1456       H  0.78711280  0.41247327  0.35506287     0.15230
C1457       C  0.25393796  0.40377225  0.84770028    -0.14370
C1458       C  0.24833519  0.43525755  0.83279998    -0.29550
H1459       H  0.25534406  0.40160913  0.87615472     0.14650
H1460       H  0.24363757  0.43756370  0.80473246     0.15230
C1461       C  0.26380192  0.90896726  0.16729951    -0.14370
C1462       C  0.23805684  0.92814700  0.15228933    -0.29550
H1463       H  0.28922299  0.92080860  0.17241477     0.14650
H1464       H  0.21177008  0.91738798  0.14974981     0.15230
C1465       C  0.17715571  0.07263311  0.12383717    -0.11210
C1466       C  0.19969796  0.05027452  0.12397749    -0.12770
C1467       C  0.16948220  0.25004686  0.93683323    -0.14370
C1468       C  0.15447312  0.25600269  0.90541941    -0.29550
H1469       H  0.19737519  0.24448540  0.93890138     0.14650
H1470       H  0.12610698  0.25856078  0.90354982     0.15230
C1471       C  0.12491389  0.20218284  0.05032899    -0.11210
C1472       C  0.12421601  0.17920103  0.07224965    -0.12770
C1473       C  0.00439213  0.07640747  0.31234924    -0.14370
C1474       C  0.00149673  0.09323631  0.34323370    -0.29550
H1475       H  0.00738338  0.04803055  0.31142512     0.14650
H1476       H  0.00063350  0.12178817  0.34379259     0.15230
C1477       C  0.91191450  0.16697009  0.26671903    -0.14370
C1478       C  0.92561174  0.14953306  0.23927665    -0.29550
H1479       H  0.92757215  0.17032742  0.29040635     0.14650
H1480       H  0.91194305  0.14881331  0.21420806     0.15230
C1481       C  0.04512395  0.11885656  0.19547870    -0.11210
C1482       C  0.06826489  0.12119923  0.17392647    -0.12770
C1483       C  0.82922195  0.25170575  0.43495263    -0.14370
C1484       C  0.84241111  0.26762365  0.40628488    -0.29550
H1485       H  0.80511868  0.23656939  0.43312434     0.14650
H1486       H  0.86796456  0.28023212  0.40741719     0.15230
C1487       C  0.07359937  0.14815733  0.73379147    -0.14370
C1488       C  0.08717181  0.16921904  0.75867685    -0.29550
H1489       H  0.08784485  0.14264742  0.70973958     0.14650
H1490       H  0.07073366  0.17659946  0.78082459     0.15230
C1491       C  0.86953276  0.18107810  0.57274659    -0.11210
C1492       C  0.86781428  0.20490796  0.55170239    -0.12770
C1493       C  0.92772872  0.12394914  0.67407805    -0.11210
C1494       C  0.95074604  0.12271668  0.69598457    -0.12770
C1495       C  0.80195841  0.04570890  0.61930549    -0.11210
C1496       C  0.82327202  0.06928021  0.62028107    -0.12770
C1497       C  0.91683965  0.68330410  0.99155370    -0.14370
C1498       C  0.90042564  0.65302934  0.99932981    -0.29550
H1499       H  0.94425984  0.68319930  0.98378927     0.14650
H1500       H  0.87248415  0.65294628  0.00499108     0.15230
C1501       C  0.99722046  0.60014117  0.15349527    -0.14370
C1502       C  0.99092046  0.58427889  0.18436924    -0.29550
H1503       H  0.00102615  0.62842955  0.15251357     0.14650
H1504       H  0.98483966  0.55640385  0.18533319     0.15230
C1505       C  0.00351332  0.40265256  0.84924389    -0.14370
C1506       C  0.00502954  0.41740814  0.81724312    -0.29550
H1507       H  0.00516261  0.37424172  0.85180364     0.14650
H1508       H  0.00598080  0.44578165  0.81424988     0.15230
C1509       C  0.10052606  0.35097439  0.00305377    -0.14370
C1510       C  0.08541580  0.31931238  0.00687962    -0.29550
H1511       H  0.12896450  0.35312488  0.00239320     0.14650
H1512       H  0.05721060  0.31703129  0.01030258     0.15230
C1513       C  0.23410125  0.40912631  0.16615411    -0.14370
C1514       C  0.26050823  0.42885269  0.15348022    -0.29550
H1515       H  0.20784178  0.42006064  0.16799228     0.14650
H1516       H  0.28725283  0.41895534  0.15426473     0.15230
C1517       C  0.15254526  0.50445134  0.10004976    -0.14370
C1518       C  0.18368066  0.50840369  0.08405934    -0.29550
H1519       H  0.15131023  0.50286381  0.12852877     0.14650
H1520       H  0.18502801  0.51219113  0.05580423     0.15230
C1521       C  0.32375990  0.57191297  0.12429209    -0.11210
C1522       C  0.30151435  0.54929435  0.12345841    -0.12770
C1523       C  0.44897560  0.63048349  0.20153819    -0.11210
C1524       C  0.42708720  0.62911426  0.17847024    -0.12770
C1525       C  0.34893611  0.74148045  0.92381326    -0.14370
C1526       C  0.33102355  0.76852859  0.90954545    -0.29550
H1527       H  0.35241738  0.71706918  0.90944560     0.14650
H1528       H  0.32488940  0.79119120  0.92581918     0.15230
C1529       C  0.37669080  0.69755551  0.04507741    -0.11210
C1530       C  0.37646085  0.67586353  0.06828431    -0.12770
C1531       C  0.81651769  0.49272438  0.91773433    -0.14370
C1532       C  0.84755141  0.49824616  0.90195232    -0.29550
H1533       H  0.81535856  0.48703733  0.94567520     0.14650
H1534       H  0.84867702  0.50164892  0.87362665     0.15230
C1535       C  0.43444346  0.33066933  0.75628521    -0.14370
C1536       C  0.40371002  0.34533295  0.74692313    -0.29550
H1537       H  0.43538927  0.30373009  0.76567151     0.14650
H1538       H  0.40266137  0.37312036  0.74038456     0.15230
C1539       C  0.69673583  0.45607747  0.87947862    -0.11210
C1540       C  0.67462134  0.43324918  0.87849873    -0.12770
C1541       C  0.57321155  0.37368658  0.82274072    -0.11210
C1542       C  0.55133911  0.37177812  0.79967022    -0.12770
C1543       C  0.66792908  0.23211857  0.09099698    -0.14370
C1544       C  0.65075009  0.25939150  0.07624535    -0.29550
H1545       H  0.67355632  0.20906316  0.07510357     0.14650
H1546       H  0.64799432  0.28412198  0.09022068     0.15230
C1547       C  0.62465845  0.32631257  0.93221010    -0.11210
C1548       C  0.62438353  0.30409242  0.95495590    -0.12770
C1549       C  0.67752548  0.98852968  0.90152425    -0.14370
C1550       C  0.65829028  0.01541162  0.91416240    -0.29550
H1551       H  0.66744504  0.96185344  0.90272637     0.14650
H1552       H  0.66949818  0.04161012  0.91557546     0.15230
C1553       C  0.34111720  0.98619675  0.08207483    -0.14370
C1554       C  0.32182671  0.01197054  0.09680915    -0.29550
H1555       H  0.32939604  0.96068751  0.07701383     0.14650
H1556       H  0.33247599  0.03833910  0.09923907     0.15230
C1557       C  0.57902999  0.16108990  0.01305471    -0.14370
C1558       C  0.59455459  0.18097790  0.98830185    -0.29550
H1559       H  0.57265273  0.17251445  0.03839864     0.14650
H1560       H  0.59847720  0.17074670  0.96195525     0.15230
C1561       C  0.42080225  0.84025273  0.98587591    -0.14370
C1562       C  0.40556875  0.82041541  0.01082817    -0.29550
H1563       H  0.42692002  0.82879581  0.96048032     0.14650
H1564       H  0.40195406  0.83067935  0.03720750     0.15230
C1565       C  0.34713579  0.76169454  0.42799531    -0.14370
C1566       C  0.33227575  0.73580694  0.40891483    -0.29550
H1567       H  0.34953923  0.78797525  0.41712950     0.14650
H1568       H  0.32727192  0.71039569  0.42085018     0.15230
C1569       C  0.48897829  0.90437430  0.82050699    -0.14370
C1570       C  0.51432819  0.91900618  0.84040221    -0.29550
H1571       H  0.46243738  0.90185477  0.83054481     0.14650
H1572       H  0.53997656  0.92409089  0.82911076     0.15230
C1573       C  0.43154202  0.87838298  0.67488433    -0.11210
C1574       C  0.45434151  0.87793487  0.69704886    -0.12770
C1575       C  0.37455132  0.80101425  0.54990960    -0.11210
C1576       C  0.37484292  0.82402240  0.57182860    -0.12770
C1577       C  0.26179696  0.07930220  0.64454956    -0.14370
C1578       C  0.23379293  0.09526047  0.65902703    -0.29550
H1579       H  0.28748138  0.09162589  0.64557302     0.14650
H1580       H  0.20929421  0.08080845  0.66114483     0.15230
C1581       C  0.18721019  0.99570090  0.57810020    -0.14370
C1582       C  0.15661905  0.00276158  0.59414391    -0.29550
H1583       H  0.18773423  0.98842741  0.55050560     0.14650
H1584       H  0.15616822  0.00781913  0.62224932     0.15230
C1585       C  0.30562668  0.95763464  0.61914499    -0.11210
C1586       C  0.32721872  0.93433850  0.62099470    -0.12770
C1587       C  0.40990054  0.16804316  0.23669355    -0.14370
C1588       C  0.42920921  0.15297428  0.26234149    -0.29550
H1589       H  0.42159969  0.17320768  0.21123939     0.14650
H1590       H  0.41856739  0.15038810  0.28866239     0.15230
C1591       C  0.48696124  0.08258973  0.15902378    -0.14370
C1592       C  0.51275979  0.09744077  0.17824690    -0.29550
H1593       H  0.46157265  0.07753079  0.17087365     0.14650
H1594       H  0.53902744  0.09989385  0.16749982     0.15230
C1595       C  0.62306273  0.19563942  0.45499045    -0.11210
C1596       C  0.62420046  0.17359684  0.43207721    -0.12770
C1597       C  0.55125689  0.12410750  0.30080809    -0.11210
C1598       C  0.57354196  0.12351323  0.32351132    -0.12770
C1599       C  0.81717902  0.00528065  0.41885450    -0.14370
C1600       C  0.84784812  0.99829652  0.40289070    -0.29550
H1601       H  0.81669394  0.01298591  0.44633728     0.14650
H1602       H  0.84839927  0.99296001  0.37484434     0.15230
C1603       C  0.67604254  0.06664457  0.37968480    -0.11210
C1604       C  0.69780038  0.04346781  0.38105334    -0.12770
C1605       C  0.16034731  0.98627736  0.91918056    -0.14370
C1606       C  0.18032103  0.01177148  0.90492265    -0.29550
H1607       H  0.17166348  0.96057369  0.92426112     0.14650
H1608       H  0.17019438  0.03834711  0.90245451     0.15230
C1609       C  0.98603859  0.91996275  0.15974254    -0.14370
C1610       C  0.01095013  0.90503441  0.18007490    -0.29550
H1611       H  0.96061700  0.92626524  0.17090905     0.14650
H1612       H  0.03733392  0.90130921  0.16998867     0.15230
C1613       C  0.91595625  0.15839700  0.98482656    -0.14370
C1614       C  0.90312222  0.17746523  0.01173430    -0.29550
H1615       H  0.91776617  0.16991651  0.95879003     0.14650
H1616       H  0.90392825  0.16715111  0.03833502     0.15230
C1617       C  0.84052347  0.01385694  0.08027227    -0.14370
C1618       C  0.82066460  0.98838237  0.09470501    -0.29550
H1619       H  0.82920907  0.03959526  0.07538108     0.14650
H1620       H  0.83081252  0.96179932  0.09702499     0.15230
C1621       C  0.01486428  0.08076191  0.83864122    -0.14370
C1622       C  0.98951846  0.09492977  0.81829625    -0.29550
H1623       H  0.04045846  0.07515596  0.82752063     0.14650
H1624       H  0.96308446  0.09791132  0.82850155     0.15230
C1625       C  0.08255255  0.84084735  0.01342365    -0.14370
C1626       C  0.09746530  0.82182724  0.98759526    -0.29550
H1627       H  0.07746237  0.82888750  0.03879579     0.14650
H1628       H  0.09995174  0.83270222  0.96133569     0.15230
C1629       C  0.48460823  0.41398299  0.65859661    -0.14370
C1630       C  0.51127901  0.40157216  0.67836370    -0.29550
H1631       H  0.45832300  0.41533212  0.66947542     0.14650
H1632       H  0.53802126  0.40286514  0.66861503     0.15230
C1633       C  0.66051447  0.48558819  0.41989351    -0.14370
C1634       C  0.68047649  0.51112761  0.40576680    -0.29550
H1635       H  0.67182273  0.45989675  0.42502478     0.14650
H1636       H  0.67025597  0.53766512  0.40323785     0.15230
C1637       C  0.41829555  0.65941146  0.48685533    -0.14370
C1638       C  0.40300685  0.67849862  0.51245859    -0.29550
H1639       H  0.42354912  0.67135355  0.46150756     0.14650
H1640       H  0.40029718  0.66769606  0.53872218     0.15230
C1641       C  0.59476446  0.31884168  0.49017132    -0.14370
C1642       C  0.57924377  0.33926434  0.51455543    -0.29550
H1643       H  0.59963526  0.32904582  0.46398747     0.14650
H1644       H  0.57181297  0.32804260  0.53966211     0.15230
C1645       C  0.33963629  0.51291698  0.57854191    -0.14370
C1646       C  0.31980767  0.48783031  0.59362433    -0.29550
H1647       H  0.32821134  0.53839127  0.57260384     0.14650
H1648       H  0.33003807  0.46140294  0.59707494     0.15230
C1649       C  0.51543629  0.58576185  0.34185535    -0.14370
C1650       C  0.48870713  0.59870029  0.32249253    -0.29550
H1651       H  0.54158224  0.58411983  0.33067660     0.14650
H1652       H  0.46204438  0.59772494  0.33248811     0.15230
C1653       C  0.59560219  0.65427674  0.98787353    -0.14370
C1654       C  0.58076772  0.68410160  0.99988686    -0.29550
H1655       H  0.62298708  0.65420172  0.97996047     0.14650
H1656       H  0.55436724  0.68380259  0.01058381     0.15230
C1657       C  0.65987438  0.51085117  0.08357228    -0.14370
C1658       C  0.67318853  0.48366947  0.10168002    -0.29550
H1659       H  0.67549679  0.53459129  0.08068923     0.14650
H1660       H  0.65974157  0.45851911  0.10232403     0.15230
C1661       C  0.40091068  0.34943764  0.01030849    -0.14370
C1662       C  0.41461154  0.31997829  0.99615942    -0.29550
H1663       H  0.37426391  0.34936963  0.02040100     0.14650
H1664       H  0.44010061  0.32072881  0.98345803     0.15230
C1665       C  0.34422351  0.49881031  0.90802022    -0.14370
C1666       C  0.31242223  0.50318583  0.92245924    -0.29550
H1667       H  0.34663316  0.49799596  0.87956062     0.14650
H1668       H  0.30944168  0.50696736  0.95057711     0.15230
C1669       C  0.43064081  0.65666513  0.73913539    -0.14370
C1670       C  0.41537127  0.67551822  0.76498198    -0.29550
H1671       H  0.41673084  0.65143325  0.71475680     0.14650
H1672       H  0.43116134  0.68315387  0.78755132     0.15230
C1673       C  0.51491725  0.60073501  0.82133411    -0.14370
C1674       C  0.48920418  0.58209115  0.83674292    -0.29550
H1675       H  0.53981821  0.60506261  0.83457191     0.14650
H1676       H  0.46614845  0.57526549  0.82127659     0.15230
C1677       C  0.67879144  0.56953146  0.61842216    -0.11210
C1678       C  0.69985574  0.54564769  0.61612097    -0.12770
C1679       C  0.62767337  0.67898053  0.56964014    -0.11210
C1680       C  0.62748334  0.70192063  0.54750326    -0.12770
C1681       C  0.57471059  0.62451612  0.67500512    -0.11210
C1682       C  0.55220273  0.62539238  0.69754225    -0.12770
C1683       C  0.65374237  0.99703812  0.59461892    -0.14370
C1684       C  0.68454204  0.00427919  0.57915770    -0.29550
H1685       H  0.65280102  0.99219019  0.62274705     0.14650
H1686       H  0.68552310  0.01191293  0.55168044     0.15230
C1687       C  0.50404447  0.09708315  0.65397827    -0.14370
C1688       C  0.49764548  0.08216810  0.68529588    -0.29550
H1689       H  0.50680966  0.12546095  0.65212375     0.14650
H1690       H  0.49176025  0.05431170  0.68728307     0.15230
C1691       C  0.48664401  0.91288533  0.34239179    -0.14370
C1692       C  0.51323606  0.89533710  0.32698589    -0.29550
H1693       H  0.46343065  0.91883190  0.32682383     0.14650
H1694       H  0.53824459  0.89214971  0.34034436     0.15230
C1695       C  0.59760506  0.84906736  0.49414366    -0.14370
C1696       C  0.58362278  0.81744924  0.50156138    -0.29550
H1697       H  0.62583433  0.85154028  0.49092322     0.14650
H1698       H  0.55597907  0.81500856  0.50801236     0.15230
C1699       C  0.33800329  0.00848001  0.41830244    -0.14370
C1700       C  0.32464606  0.98392424  0.39675001    -0.29550
H1701       H  0.32136734  0.03038881  0.42607016     0.14650
H1702       H  0.33909373  0.96006415  0.39078215     0.15230
C1703       C  0.10411277  0.67566952  0.48413893    -0.14370
C1704       C  0.09106386  0.65655667  0.51080382    -0.29550
H1705       H  0.10282298  0.66604384  0.45729550     0.14650
H1706       H  0.08983311  0.66782726  0.53702155     0.15230
C1707       C  0.00862770  0.58919483  0.68194813    -0.14370
C1708       C  0.98962134  0.59813556  0.65347421    -0.29550
H1709       H  0.03056522  0.57114227  0.67919912     0.14650
H1710       H  0.96813925  0.61668625  0.65516448     0.15230
C1711       C  0.83889808  0.50969405  0.58608898    -0.14370
C1712       C  0.81233596  0.49062483  0.57311591    -0.29550
H1713       H  0.83368530  0.52855183  0.60690436     0.14650
H1714       H  0.81762799  0.47092128  0.55314062     0.15230
C1715       C  0.01016311  0.41512336  0.34402732    -0.14370
C1716       C  0.98493604  0.39992141  0.32441249    -0.29550
H1717       H  0.03581516  0.41996479  0.33266221     0.14650
H1718       H  0.95841135  0.39754509  0.33452380     0.15230
C1719       C  0.90746391  0.34844283  0.49087815    -0.14370
C1720       C  0.89421177  0.32909219  0.51737238    -0.29550
H1721       H  0.90987149  0.33683389  0.46490392     0.14650
H1722       H  0.89451010  0.33909216  0.54410130     0.15230
C1723       C  0.17794066  0.48323388  0.40004328    -0.14370
C1724       C  0.15907616  0.50828134  0.41641714    -0.29550
H1725       H  0.16725936  0.45698082  0.39672917     0.14650
H1726       H  0.17112755  0.53355544  0.42193420     0.15230
C1727       C  0.26099082  0.57006422  0.34698214    -0.14370
C1728       C  0.23538885  0.58972819  0.33239815    -0.29550
H1729       H  0.28736920  0.58061271  0.34947907     0.14650
H1730       H  0.20982078  0.57822918  0.32727846     0.15230
C1731       C  0.30111001  0.44801969  0.37240332    -0.11210
C1732       C  0.32398939  0.42596758  0.37239476    -0.12770
C1733       C  0.33209362  0.25314921  0.56724201    -0.14370
C1734       C  0.34624004  0.24561071  0.59881565    -0.29550
H1735       H  0.30439547  0.25949509  0.56484197     0.14650
H1736       H  0.37450994  0.24256103  0.60125211     0.15230
C1737       C  0.40446441  0.15451479  0.50442067    -0.14370
C1738       C  0.41928532  0.18606966  0.49918759    -0.29550
H1739       H  0.37604794  0.15235497  0.50587534     0.14650
H1740       H  0.44732290  0.18849095  0.49470273     0.15230
C1741       C  0.37617383  0.32164101  0.42863467    -0.11210
C1742       C  0.37550089  0.30003703  0.45197699    -0.12770
C1743       C  0.59508907  0.34070593  0.23495424    -0.14370
C1744       C  0.56571040  0.32734825  0.24936400    -0.29550
H1745       H  0.59479206  0.36697061  0.22376954     0.14650
H1746       H  0.56661806  0.30248613  0.26335018     0.15230
C1747       C  0.48699552  0.39769397  0.17301151    -0.14370
C1748       C  0.51424328  0.41416460  0.15770221    -0.29550
H1749       H  0.46131677  0.39740774  0.16057459     0.14650
H1750       H  0.53861624  0.41699134  0.17236061     0.15230
C1751       C  0.44928748  0.36746183  0.29550228    -0.11210
C1752       C  0.42797969  0.36917310  0.31907978    -0.12770
C1753       C  0.84825690  0.74372634  0.57498988    -0.14370
C1754       C  0.83102334  0.77105778  0.58936602    -0.29550
H1755       H  0.84967484  0.71863922  0.58852179     0.14650
H1756       H  0.82703183  0.79477387  0.57394051     0.15230
C1757       C  0.77141781  0.58896649  0.83047575    -0.14370
C1758       C  0.74389747  0.57449369  0.84720355    -0.29550
H1759       H  0.79509830  0.57351199  0.82662849     0.14650
H1760       H  0.71890218  0.58819012  0.84826814     0.15230
C1761       C  0.58834642  0.82713403  0.76747043    -0.14370
C1762       C  0.57438350  0.84624735  0.74110495    -0.29550
H1763       H  0.57201715  0.82034049  0.78983960     0.14650
H1764       H  0.58892332  0.85064042  0.71700169     0.15230
C1765       C  0.73000513  0.91180848  0.66973878    -0.14370
C1766       C  0.75771172  0.92640610  0.65336105    -0.29550
H1767       H  0.70604600  0.92701959  0.67277205     0.14650
H1768       H  0.78289911  0.91303428  0.65295069     0.15230
C1769       C  0.67119562  0.73179510  0.91108956    -0.14370
C1770       C  0.65435225  0.75966434  0.92502027    -0.29550
H1771       H  0.67436184  0.70811822  0.92676962     0.14650
H1772       H  0.65360632  0.78466728  0.91129106     0.15230
C1773       C  0.91135486  0.66941864  0.73199496    -0.14370
C1774       C  0.92410134  0.65091688  0.75943090    -0.29550
H1775       H  0.92784362  0.67363218  0.70910465     0.14650
H1776       H  0.90946736  0.64898160  0.78380143     0.15230
C1777       C  0.74744454  0.09560922  0.84584602    -0.14370
C1778       C  0.75561448  0.06485016  0.83060784    -0.29550
H1779       H  0.74189494  0.09658772  0.87383065     0.14650
H1780       H  0.76390098  0.06392220  0.80333488     0.15230
C1781       C  0.59885674  0.15239162  0.74627566    -0.14370
C1782       C  0.56759383  0.16704378  0.75372185    -0.29550
H1783       H  0.60085092  0.12405929  0.74318541     0.14650
H1784       H  0.56566755  0.19482945  0.75998869     0.15230
C1785       C  0.66173708  0.26245256  0.59420928    -0.14370
C1786       C  0.64417720  0.23594900  0.57864264    -0.29550
H1787       H  0.66765090  0.28577536  0.57883785     0.14650
H1788       H  0.64111120  0.21080688  0.59175459     0.15230
C1789       C  0.73202526  0.42178390  0.64577249    -0.14370
C1790       C  0.75878718  0.40907459  0.66500443    -0.29550
H1791       H  0.70711309  0.40803108  0.64414772     0.14650
H1792       H  0.78222400  0.42509618  0.66825719     0.15230
C1793       C  0.84816614  0.24468802  0.90394357    -0.14370
C1794       C  0.83299444  0.25483828  0.93409765    -0.29550
H1795       H  0.87588988  0.23794694  0.90349280     0.14650
H1796       H  0.80610396  0.26434298  0.93431313     0.15230
C1797       C  0.93791345  0.32861048  0.75099348    -0.14370
C1798       C  0.90621898  0.34367179  0.75422614    -0.29550
H1799       H  0.94055048  0.30031944  0.74823355     0.14650
H1800       H  0.90407762  0.37217173  0.75416894     0.15230
C1801       C  0.74532526  0.58900676  0.16061253    -0.14370
C1802       C  0.74745568  0.55825494  0.17770887    -0.29550
H1803       H  0.74568923  0.58930869  0.13204975     0.14650
H1804       H  0.74919369  0.55740923  0.20618384     0.15230
C1805       C  0.85301178  0.76043368  0.07439831    -0.14370
C1806       C  0.83491761  0.73365908  0.08847400    -0.29550
H1807       H  0.85522684  0.78539334  0.08807846     0.14650
H1808       H  0.83020247  0.71026633  0.07273089     0.15230
C1809       C  0.59658108  0.65441816  0.25595414    -0.14370
C1810       C  0.56631591  0.66938776  0.24558142    -0.29550
H1811       H  0.59710941  0.62673146  0.26296518     0.14650
H1812       H  0.56600100  0.69613315  0.23561281     0.15230
C1813       C  0.66994209  0.74977989  0.43263641    -0.14370
C1814       C  0.65564532  0.75791932  0.40130779    -0.29550
H1815       H  0.69743121  0.74245288  0.43461935     0.14650
H1816       H  0.62745424  0.76183060  0.39921446     0.15230
C1817       C  0.91010319  0.83191905  0.23433136    -0.14370
C1818       C  0.92436198  0.85049984  0.26086848    -0.29550
H1819       H  0.92614505  0.82590178  0.21151708     0.14650
H1820       H  0.91036992  0.85407559  0.28543101     0.15230
C1821       C  0.76800491  0.90631127  0.33701289    -0.14370
C1822       C  0.74085669  0.92221533  0.35307679    -0.29550
H1823       H  0.79241807  0.92070048  0.33380125     0.14650
H1824       H  0.71515151  0.90989814  0.35332314     0.15230
loop_ 
_geom_bond_atom_site_label_1 
_geom_bond_atom_site_label_2 
_geom_bond_distance 
_geom_bond_site_symmetry_2 
_ccdc_geom_bond_type 
O1           Mg3   2.097       .  S
O1           Mg9   2.155       .  S
O1           C36   1.236       .  S
C2           O15   1.237       .  S
C2           O39   1.269       .  A
C2           H41   1.081       .  S
Mg3          O32   2.133       .  S
Mg3          O47   2.289       .  S
Mg3          O43   2.215       .  S
Mg3          O14   2.309       .  S
O4          Mg46   2.154       .  S
O4          Mg29   2.141       .  S
O4           C25   1.238       .  S
O5           C36   1.267       .  A
O5          Mg29   2.273       .  S
C6            O8   1.267       .  A
C6           O20   1.277       .  A
C6         C1817   1.467       .  S
O7           C35   1.269       .  A
O7           Mg9   2.285       .  S
O8          Mg40   2.218       .  S
Mg9          O15   2.121       .  S
Mg9          O23   2.263       .  S
Mg9          O11   2.287       .  S
C10          O48   1.270       .  A
C10          O16   1.281       .  A
C10        C1821   1.472       .  S
O11          C18   1.273       .  A
H12          C25   1.081       .  S
C13          O27   1.239       .  S
C13          O28   1.274       .  A
C13          H38   1.081       .  S
O14          C37   1.273       .  A
O15         Mg29   2.160       .  S
O16         Mg46   2.360       .  S
C17          O30   1.276       .  A
C17          O22   1.274       .  A
C17        C1814   1.467       .  S
C18          O45   1.275       .  A
C18        C1809   1.465       .  S
Mg19         O26   2.142       .  S
Mg19         O27   2.126       .  S
Mg19         O20   2.343       .  S
Mg19         O21   2.306       .  S
Mg19         O48   2.234       .  S
O21          C25   1.272       .  A
O22         Mg29   2.291       .  S
O23          C42   1.273       .  A
O24          C44   1.277       .  A
O24         Mg40   2.337       .  S
O26         Mg40   2.124       .  S
O26          C37   1.238       .  S
O27         Mg46   2.152       .  S
O28         Mg40   2.318       .  S
Mg29         O45   2.274       .  S
O30         Mg46   2.281       .  S
H31          C36   1.081       .  S
O32         Mg40   2.116       .  S
O32          C35   1.237       .  S
H33          C35   1.081       .  S
H34          C37   1.081       .  S
O39         Mg46   2.286       .  S
C42          O47   1.272       .  A
C42        C1801   1.468       .  S
O43          C44   1.265       .  A
C44        C1806   1.465       .  S
O49         Mg51   2.137       .  S
O49         Mg57   2.150       .  S
O49          C84   1.238       .  S
C50          O63   1.238       .  S
C50          O87   1.272       .  A
C50          H89   1.081       .  S
Mg51         O80   2.161       .  S
Mg51         O95   2.297       .  S
Mg51         O91   2.266       .  S
Mg51         O62   2.278       .  S
O52         Mg94   2.135       .  S
O52         Mg77   2.122       .  S
O52          C73   1.237       .  S
O53          C84   1.272       .  A
O53         Mg77   2.306       .  S
C54          O56   1.274       .  A
C54          O68   1.273       .  A
C54        C1793   1.461       .  S
O55          C83   1.271       .  A
O55         Mg57   2.297       .  S
O56         Mg88   2.263       .  S
Mg57         O63   2.144       .  S
Mg57         O71   2.271       .  S
Mg57         O59   2.365       .  S
C58          O96   1.272       .  A
C58          O64   1.272       .  A
C58        C1798   1.465       .  S
O59          C66   1.280       .  A
H60          C73   1.081       .  S
C61          O75   1.236       .  S
C61          O76   1.267       .  A
C61          H86   1.081       .  S
O62          C85   1.268       .  A
O63         Mg77   2.125       .  S
O64         Mg94   2.285       .  S
C65          O78   1.266       .  A
C65          O70   1.276       .  A
C65        C1790   1.467       .  S
C66          O93   1.268       .  A
C66        C1785   1.469       .  S
Mg67         O74   2.115       .  S
Mg67         O75   2.157       .  S
Mg67         O68   2.286       .  S
Mg67         O69   2.288       .  S
Mg67         O96   2.261       .  S
O69          C73   1.269       .  A
O70         Mg77   2.335       .  S
O71          C90   1.275       .  A
O72          C92   1.273       .  A
O72         Mg88   2.293       .  S
O74         Mg88   2.162       .  S
O74          C85   1.236       .  S
O75         Mg94   2.100       .  S
O76         Mg88   2.274       .  S
Mg77         O93   2.211       .  S
O78         Mg94   2.222       .  S
H79          C84   1.081       .  S
O80         Mg88   2.134       .  S
O80          C83   1.238       .  S
H81          C83   1.081       .  S
H82          C85   1.081       .  S
O87         Mg94   2.307       .  S
C90          O95   1.274       .  A
C90        C1781   1.467       .  S
O91          C92   1.274       .  A
C92        C1777   1.465       .  S
O97         Mg99   2.138       .  S
O97        Mg105   2.127       .  S
O97         C132   1.239       .  S
C98         O111   1.239       .  S
C98         O135   1.273       .  A
C98         H137   1.081       .  S
Mg99        O128   2.128       .  S
Mg99        O143   2.330       .  S
Mg99        O139   2.254       .  S
Mg99        O110   2.304       .  S
O100       Mg142   2.124       .  S
O100       Mg125   2.132       .  S
O100        C121   1.239       .  S
O101        C132   1.273       .  A
O101       Mg125   2.310       .  S
C102        O104   1.269       .  A
C102        O116   1.276       .  A
C102       C1757   1.470       .  S
O103        C131   1.273       .  A
O103       Mg105   2.307       .  S
O104       Mg136   2.242       .  S
Mg105       O111   2.130       .  S
Mg105       O119   2.238       .  S
Mg105       O107   2.332       .  S
C106        O144   1.270       .  A
C106        O112   1.276       .  A
C106       C1769   1.469       .  S
O107        C114   1.276       .  A
H108        C121   1.081       .  S
C109        O123   1.238       .  S
C109        O124   1.272       .  A
C109        H134   1.081       .  S
O110        C133   1.272       .  A
O111       Mg125   2.124       .  S
O112       Mg142   2.328       .  S
C113        O126   1.269       .  A
C113        O118   1.276       .  A
C113       C1761   1.469       .  S
C114        O141   1.269       .  A
C114       C1765   1.471       .  S
Mg115       O122   2.128       .  S
Mg115       O123   2.124       .  S
Mg115       O116   2.331       .  S
Mg115       O117   2.307       .  S
Mg115       O144   2.245       .  S
O117        C121   1.273       .  A
O118       Mg125   2.331       .  S
O119        C138   1.269       .  A
O120        C140   1.274       .  A
O120       Mg136   2.312       .  S
O122       Mg136   2.127       .  S
O122        C133   1.238       .  S
O123       Mg142   2.125       .  S
O124       Mg136   2.301       .  S
Mg125       O141   2.246       .  S
O126       Mg142   2.235       .  S
H127        C132   1.081       .  S
O128       Mg136   2.133       .  S
O128        C131   1.238       .  S
H129        C131   1.081       .  S
H130        C133   1.081       .  S
O135       Mg142   2.307       .  S
C138        O143   1.276       .  A
C138       C1754   1.468       .  S
O139        C140   1.271       .  A
C140       C1773   1.469       .  S
C145       C1747   1.487       .  S
C145        C146   1.407       .  A
C145        C150   1.400       .  A
C146        H151   1.084       .  S
C146        C147   1.411       .  A
C147        C148   1.410       .  A
C147       C1751   1.452       .  S
C148        H152   1.084       .  S
C148        C149   1.406       .  A
C149       C1744   1.486       .  S
C149        C150   1.397       .  A
C150        H153   1.084       .  S
C154       C1733   1.482       .  S
C154        C155   1.408       .  A
C154        C159   1.396       .  A
C155        H160   1.084       .  S
C155        C156   1.412       .  A
C156        C157   1.406       .  A
C156       C1742   1.448       .  S
C157        H161   1.084       .  S
C157        C158   1.401       .  A
C158       C1738   1.474       .  S
C158        C159   1.396       .  A
C159        H162   1.085       .  S
C163        C164   1.407       .  A
C163        C168   1.405       .  A
C163       C1752   1.452       .  S
C164        H169   1.084       .  S
C164        C165   1.406       .  A
C165        C166   1.402       .  A
C165       C1741   1.448       .  S
C166        H170   1.085       .  S
C166        C167   1.402       .  A
C167        C168   1.405       .  A
C167       C1732   1.446       .  S
C168        H171   1.084       .  S
C172       C1723   1.490       .  S
C172        C173   1.404       .  A
C172        C177   1.403       .  A
C173        H178   1.084       .  S
C173        C174   1.407       .  A
C174        C175   1.406       .  A
C174       C1731   1.446       .  S
C175        H179   1.084       .  S
C175        C176   1.404       .  A
C176       C1727   1.488       .  S
C176        C177   1.402       .  A
C177        H180   1.080       .  S
O181       Mg183   2.131       .  S
O181       Mg189   2.144       .  S
O181        C216   1.236       .  S
C182        O195   1.239       .  S
C182        O219   1.271   1_655  A
C182        H221   1.081       .  S
Mg183       O212   2.156   1_655  S
Mg183       O227   2.290       .  S
Mg183       O223   2.281       .  S
Mg183       O194   2.290       .  S
O184       Mg226   2.157   1_655  S
O184       Mg209   2.112       .  S
O184        C205   1.237       .  S
O185        C216   1.269       .  A
O185       Mg209   2.295       .  S
C186        O188   1.275       .  A
C186        O200   1.273       .  A
C186       C1724   1.472       .  S
O187        C215   1.274   1_655  A
O187       Mg189   2.310       .  S
O188       Mg220   2.290       .  S
Mg189       O195   2.128       .  S
Mg189       O203   2.276       .  S
Mg189       O191   2.363       .  S
C190        O228   1.271       .  A
C190        O196   1.272       .  A
C190       C1704   1.463       .  S
O191        C198   1.284       .  A
H192        C205   1.081       .  S
C193        O207   1.236       .  S
C193        O208   1.268       .  A
C193        H218   1.081       .  S
O194        C217   1.270   1_655  A
O195       Mg209   2.144       .  S
O196       Mg226   2.278       .  S
C197        O210   1.268   1_655  A
C197        O202   1.271       .  A
C197       C1708   1.456       .  S
C198        O225   1.269       .  A
C198       C1711   1.480       .  S
Mg199       O206   2.109       .  S
Mg199       O207   2.153       .  S
Mg199       O200   2.279       .  S
Mg199       O201   2.285       .  S
Mg199       O228   2.253       .  S
O201        C205   1.269   1_455  A
O202       Mg209   2.274       .  S
O203        C222   1.275       .  A
O204        C224   1.272       .  A
O204       Mg220   2.276       .  S
O206       Mg220   2.152       .  S
O206        C217   1.238       .  S
O207       Mg226   2.109       .  S
O208       Mg220   2.285       .  S
Mg209       O225   2.241       .  S
O210       Mg226   2.252       .  S
H211        C216   1.081       .  S
O212       Mg220   2.142       .  S
O212        C215   1.240       .  S
H213        C215   1.081       .  S
H214        C217   1.081       .  S
O219       Mg226   2.291       .  S
C222        O227   1.275       .  A
C222       C1719   1.470       .  S
O223        C224   1.274   1_655  A
C224       C1715   1.469       .  S
O229       Mg231   2.140       .  S
O229       Mg237   2.149       .  S
O229        C264   1.238       .  S
C230        O243   1.238       .  S
C230        O267   1.272       .  A
C230        H269   1.081       .  S
Mg231       O260   2.163       .  S
Mg231       O275   2.296       .  S
Mg231       O271   2.267       .  S
Mg231       O242   2.276   1_565  S
O232       Mg274   2.135       .  S
O232       Mg257   2.123   1_545  S
O232        C253   1.238       .  S
O233        C264   1.272       .  A
O233       Mg257   2.309       .  S
C234        O236   1.275       .  A
C234        O248   1.273       .  A
C234       C1687   1.463       .  S
O235        C263   1.272       .  A
O235       Mg237   2.299       .  S
O236       Mg268   2.271       .  S
Mg237       O243   2.142       .  S
Mg237       O251   2.274       .  S
Mg237       O239   2.369       .  S
C238        O276   1.271       .  A
C238        O244   1.270       .  A
C238       C1737   1.463       .  S
O239        C246   1.281       .  A
H240        C253   1.081       .  S
C241        O255   1.235       .  S
C241        O256   1.266       .  A
C241        H266   1.081       .  S
O242        C265   1.267       .  A
O243       Mg257   2.127       .  S
O244       Mg274   2.277       .  S
C245        O258   1.264       .  A
C245        O250   1.278   1_545  A
C245       C1699   1.466       .  S
C246        O273   1.269       .  A
C246       C1691   1.472       .  S
Mg247       O254   2.109       .  S
Mg247       O255   2.153       .  S
Mg247       O248   2.283       .  S
Mg247       O249   2.288       .  S
Mg247       O276   2.259       .  S
O249        C253   1.270       .  A
O250       Mg257   2.348       .  S
O251        C270   1.275       .  A
O252        C272   1.273   1_545  A
O252       Mg268   2.291       .  S
O254       Mg268   2.163       .  S
O254        C265   1.236       .  S
O255       Mg274   2.092       .  S
O256       Mg268   2.272       .  S
Mg257       O273   2.218       .  S
O258       Mg274   2.202       .  S
H259        C264   1.081       .  S
O260       Mg268   2.139   1_565  S
O260        C263   1.238       .  S
H261        C263   1.081       .  S
H262        C265   1.081       .  S
O267       Mg274   2.303   1_565  S
C270        O275   1.274       .  A
C270       C1695   1.468       .  S
O271        C272   1.274       .  A
C272       C1683   1.465       .  S
C277        C278   1.405       .  A
C277        C282   1.406       .  A
C277       C1679   1.452       .  S
C278        H283   1.084       .  S
C278        C279   1.405       .  A
C279        C280   1.409       .  A
C279       C1681   1.455       .  S
C280        H284   1.084       .  S
C280        C281   1.409       .  A
C281        C282   1.406       .  A
C281       C1677   1.456       .  S
C282        H285   1.084       .  S
C286       C1673   1.489       .  S
C286        C287   1.405       .  A
C286        C291   1.399       .  A
C287        H292   1.084       .  S
C287        C288   1.411       .  A
C288        C289   1.414       .  A
C288       C1682   1.455       .  S
C289        H293   1.084       .  S
C289        C290   1.409       .  A
C290       C1669   1.493       .  S
C290        C291   1.399       .  A
C291        H294   1.083       .  S
C295       C1696   1.482       .  S
C295        C296   1.396       .  A
C295        C300   1.407       .  A
C296        H301   1.084       .  S
C296        C297   1.397       .  A
C297       C1813   1.482       .  S
C297        C298   1.406       .  A
C298        H302   1.084       .  S
C298        C299   1.410       .  A
C299        C300   1.411       .  A
C299       C1680   1.452       .  S
C300        H303   1.084       .  S
C304       C1712   1.479       .  S
C304        C305   1.411       .  A
C304        C309   1.390       .  A
C305        H310   1.084       .  S
C305        C306   1.413       .  A
C306        C307   1.409       .  A
C306       C1678   1.455       .  S
C307        H311   1.084       .  S
C307        C308   1.405       .  A
C308       C1789   1.480       .  S
C308        C309   1.399       .  A
C309        H312   1.085       .  S
O313       Mg315   2.142       .  S
O313       Mg321   2.135   1_554  S
O313        C348   1.238       .  S
C314        O327   1.236       .  S
C314        O351   1.269       .  A
C314        H353   1.081       .  S
Mg315       O344   2.131       .  S
Mg315       O359   2.335       .  S
Mg315       O355   2.237       .  S
Mg315       O326   2.300       .  S
O316       Mg358   2.138       .  S
O316       Mg341   2.126       .  S
O316        C337   1.239       .  S
O317        C348   1.272       .  A
O317       Mg341   2.305   1_554  S
C318        O320   1.275       .  A
C318        O332   1.275   1_554  A
C318       C1661   1.468       .  S
O319        C347   1.273   1_556  A
O319       Mg321   2.309       .  S
O320       Mg352   2.273       .  S
Mg321       O327   2.108       .  S
Mg321       O335   2.220   1_556  S
Mg321       O323   2.294       .  S
C322        O360   1.273       .  A
C322        O328   1.270       .  A
C322       C1665   1.464       .  S
O323        C330   1.272       .  A
H324        C337   1.081       .  S
C325        O339   1.237       .  S
C325        O340   1.269       .  A
C325        H350   1.081       .  S
O326        C349   1.271       .  A
O327       Mg341   2.145       .  S
O328       Mg358   2.270       .  S
C329        O342   1.268       .  A
C329        O334   1.280       .  A
C329       C1674   1.468       .  S
C330        O357   1.273       .  A
C330       C1653   1.466       .  S
Mg331       O338   2.129   1_556  S
Mg331       O339   2.156       .  S
Mg331       O332   2.306       .  S
Mg331       O333   2.287       .  S
Mg331       O360   2.272       .  S
O333        C337   1.271       .  A
O334       Mg341   2.355       .  S
O335        C354   1.265       .  A
O336        C356   1.280       .  A
O336       Mg352   2.349       .  S
O338       Mg352   2.149       .  S
O338        C349   1.237       .  S
O339       Mg358   2.114       .  S
O340       Mg352   2.287   1_556  S
Mg341       O357   2.265       .  S
O342       Mg358   2.217       .  S
H343        C348   1.081       .  S
O344       Mg352   2.147       .  S
O344        C347   1.238       .  S
H345        C347   1.081       .  S
H346        C349   1.081       .  S
O351       Mg358   2.285       .  S
C354        O359   1.276       .  A
C354       C1657   1.466       .  S
O355        C356   1.270       .  A
C356       C1748   1.471       .  S
O361       Mg363   2.117       .  S
O361       Mg369   2.151       .  S
O361        C396   1.238       .  S
C362        O375   1.238       .  S
C362        O399   1.271       .  A
C362        H401   1.081       .  S
Mg363       O392   2.146       .  S
Mg363       O407   2.287       .  S
Mg363       O403   2.262       .  S
Mg363       O374   2.295       .  S
O364       Mg406   2.151       .  S
O364       Mg389   2.119       .  S
O364        C385   1.238       .  S
O365        C396   1.270       .  A
O365       Mg389   2.289       .  S
C366        O368   1.272       .  A
C366        O380   1.275       .  A
C366       C1649   1.471       .  S
O367        C395   1.270       .  A
O367       Mg369   2.293       .  S
O368       Mg400   2.257       .  S
Mg369       O375   2.115       .  S
Mg369       O383   2.261       .  S
Mg369       O371   2.300       .  S
C370        O408   1.273       .  A
C370        O376   1.274       .  A
C370       C1633   1.468       .  S
O371        C378   1.275       .  A
H372        C385   1.081       .  S
C373        O387   1.237       .  S
C373        O388   1.270       .  A
C373        H398   1.081       .  S
O374        C397   1.271       .  A
O375       Mg389   2.147       .  S
O376       Mg406   2.290       .  S
C377        O390   1.273       .  A
C377        O382   1.273       .  A
C377       C1642   1.469       .  S
C378        O405   1.272       .  A
C378       C1629   1.472       .  S
Mg379       O386   2.123       .  S
Mg379       O387   2.151       .  S
Mg379       O380   2.304       .  S
Mg379       O381   2.293       .  S
Mg379       O408   2.266       .  S
O381        C385   1.270       .  A
O382       Mg389   2.281       .  S
O383        C402   1.272       .  A
O384        C404   1.274       .  A
O384       Mg400   2.292       .  S
O386       Mg400   2.148       .  S
O386        C397   1.238       .  S
O387       Mg406   2.123       .  S
O388       Mg400   2.292       .  S
Mg389       O405   2.263       .  S
O390       Mg406   2.277       .  S
H391        C396   1.081       .  S
O392       Mg400   2.118       .  S
O392        C395   1.237       .  S
H393        C395   1.081       .  S
H394        C397   1.081       .  S
O399       Mg406   2.292       .  S
C402        O407   1.274       .  A
C402       C1645   1.467       .  S
O403        C404   1.272       .  A
C404       C1637   1.469       .  S
O409       Mg411   2.122       .  S
O409       Mg417   2.148   1_554  S
O409        C444   1.238       .  S
C410        O423   1.238       .  S
C410        O447   1.270   1_465  A
C410        H449   1.081       .  S
Mg411       O440   2.150   1_455  S
Mg411       O455   2.289       .  S
Mg411       O451   2.272       .  S
Mg411       O422   2.291       .  S
O412       Mg454   2.150   1_455  S
O412       Mg437   2.116       .  S
O412        C433   1.238       .  S
O413        C444   1.271   1_546  A
O413       Mg437   2.294       .  S
C414        O416   1.272   1_545  A
C414        O428   1.274       .  A
C414       C1617   1.470       .  S
O415        C443   1.271   1_456  A
O415       Mg417   2.292       .  S
O416       Mg448   2.267       .  S
Mg417       O423   2.116       .  S
Mg417       O431   2.255       .  S
Mg417       O419   2.289       .  S
C418        O456   1.271   1_556  A
C418        O424   1.275       .  A
C418       C1613   1.467       .  S
O419        C426   1.274       .  A
H420        C433   1.081       .  S
C421        O435   1.238       .  S
C421        O436   1.271   1_546  A
C421        H446   1.081       .  S
O422        C445   1.270   1_465  A
O423       Mg437   2.148   1_565  S
O424       Mg454   2.297       .  S
C425        O438   1.274   1_455  A
C425        O430   1.274       .  A
C425       C1621   1.471       .  S
C426        O453   1.272   1_565  A
C426       C1605   1.469       .  S
Mg427       O434   2.114       .  S
Mg427       O435   2.150   1_554  S
Mg427       O428   2.291       .  S
Mg427       O429   2.290       .  S
Mg427       O456   2.250       .  S
O429        C433   1.270   1_654  A
O430       Mg437   2.292       .  S
O431        C450   1.272   1_556  A
O432        C452   1.274       .  A
O432       Mg448   2.289       .  S
O434       Mg448   2.146   1_545  S
O434        C445   1.238       .  S
O435       Mg454   2.126       .  S
O436       Mg448   2.294       .  S
Mg437       O453   2.266       .  S
O438       Mg454   2.273       .  S
H439        C444   1.081       .  S
O440       Mg448   2.116       .  S
O440        C443   1.238       .  S
H441        C443   1.081       .  S
H442        C445   1.081       .  S
O447       Mg454   2.291       .  S
C450        O455   1.274       .  A
C450       C1625   1.466       .  S
O451        C452   1.273   1_455  A
C452       C1609   1.470       .  S
C457       C1599   1.477   1_565  S
C457        C458   1.397       .  A
C457        C462   1.402   1_565  A
C458        H463   1.084       .  S
C458        C459   1.403       .  A
C459       C1822   1.490       .  S
C459        C460   1.408       .  A
C460        H464   1.084       .  S
C460        C461   1.410   1_565  A
C461        C462   1.406       .  A
C461       C1604   1.448       .  S
C462        H465   1.084       .  S
C466        C467   1.404       .  A
C466        C471   1.404       .  A
C466       C1598   1.447       .  S
C467        H472   1.084       .  S
C467        C468   1.404       .  A
C468        C469   1.405       .  A
C468       C1603   1.448       .  S
C469        H473   1.084       .  S
C469        C470   1.404       .  A
C470        C471   1.404       .  A
C470       C1596   1.447       .  S
C471        H474   1.084       .  S
C475       C1588   1.487       .  S
C475        C476   1.400       .  A
C475        C480   1.405       .  A
C476        H481   1.080       .  S
C476        C477   1.400       .  A
C477       C1592   1.486       .  S
C477        C478   1.404       .  A
C478        H482   1.084       .  S
C478        C479   1.407       .  A
C479        C480   1.407       .  A
C479       C1597   1.447       .  S
C480        H483   1.084       .  S
C484       C1786   1.492       .  S
C484        C485   1.401       .  A
C484        C489   1.405       .  A
C485        H490   1.080       .  S
C485        C486   1.401       .  A
C486       C1641   1.490       .  S
C486        C487   1.404       .  A
C487        H491   1.084       .  S
C487        C488   1.408       .  A
C488        C489   1.410       .  A
C488       C1595   1.447       .  S
C489        H492   1.084       .  S
C493       C1577   1.490       .  S
C493        C494   1.408       .  A
C493        C498   1.402       .  A
C494        H499   1.084       .  S
C494        C495   1.411   1_545  A
C495        C496   1.407       .  A
C495       C1585   1.448       .  S
C496        H500   1.084       .  S
C496        C497   1.402   1_565  A
C497       C1581   1.476   1_545  S
C497        C498   1.396       .  A
C498        H501   1.084       .  S
C502        C503   1.402       .  A
C502        C507   1.404       .  A
C502       C1576   1.445       .  S
C503        H508   1.085       .  S
C503        C504   1.402       .  A
C504        C505   1.405       .  A
C504       C1573   1.446       .  S
C505        H509   1.084       .  S
C505        C506   1.405       .  A
C506        C507   1.404       .  A
C506       C1586   1.448       .  S
C507        H510   1.084       .  S
C511       C1762   1.486       .  S
C511        C512   1.406       .  A
C511        C516   1.399       .  A
C512        H517   1.084       .  S
C512        C513   1.410       .  A
C513        C514   1.407       .  A
C513       C1574   1.446       .  S
C514        H518   1.084       .  S
C514        C515   1.402       .  A
C515       C1569   1.484       .  S
C515        C516   1.399       .  A
C516        H519   1.082       .  S
C520       C1638   1.486       .  S
C520        C521   1.400       .  A
C520        C525   1.404       .  A
C521        H526   1.080       .  S
C521        C522   1.400       .  A
C522       C1565   1.485       .  S
C522        C523   1.403       .  A
C523        H527   1.084       .  S
C523        C524   1.406       .  A
C524        C525   1.407       .  A
C524       C1575   1.445       .  S
C525        H528   1.084       .  S
O529       Mg531   2.116       .  S
O529       Mg537   2.148   1_545  S
O529        C564   1.238       .  S
C530        O543   1.238       .  S
C530        O567   1.270   1_556  A
C530        H569   1.081       .  S
Mg531       O560   2.151   1_556  S
Mg531       O575   2.299       .  S
Mg531       O571   2.263       .  S
Mg531       O542   2.293       .  S
O532       Mg574   2.148   1_556  S
O532       Mg557   2.116       .  S
O532        C553   1.237       .  S
O533        C564   1.270   1_565  A
O533       Mg557   2.291       .  S
C534        O536   1.272       .  A
C534        O548   1.274       .  A
C534       C1591   1.468       .  S
O535        C563   1.270   1_566  A
O535       Mg537   2.288       .  S
O536       Mg568   2.261       .  S
Mg537       O543   2.116       .  S
Mg537       O551   2.254       .  S
Mg537       O539   2.281       .  S
C538        O576   1.272   1_565  A
C538        O544   1.274       .  A
C538       C1553   1.468       .  S
O539        C546   1.272       .  A
H540        C553   1.081       .  S
C541        O555   1.238       .  S
C541        O556   1.271   1_565  A
C541        H566   1.081       .  S
O542        C565   1.270   1_556  A
O543       Mg557   2.148       .  S
O544       Mg574   2.294       .  S
C545        O558   1.272   1_556  A
C545        O550   1.273       .  A
C545       C1561   1.466       .  S
C546        O573   1.272       .  A
C546       C1570   1.466       .  S
Mg547       O554   2.117       .  S
Mg547       O555   2.148   1_545  S
Mg547       O548   2.290       .  S
Mg547       O549   2.292       .  S
Mg547       O576   2.259       .  S
O549        C553   1.270   1_544  A
O550       Mg557   2.282       .  S
O551        C570   1.272   1_565  A
O552        C572   1.273       .  A
O552       Mg568   2.284       .  S
O554       Mg568   2.146       .  S
O554        C565   1.238       .  S
O555       Mg574   2.117       .  S
O556       Mg568   2.293       .  S
Mg557       O573   2.263       .  S
O558       Mg574   2.263       .  S
H559        C564   1.081       .  S
O560       Mg568   2.116       .  S
O560        C563   1.237       .  S
H561        C563   1.081       .  S
H562        C565   1.081       .  S
O567       Mg574   2.293       .  S
C570        O575   1.275       .  A
C570       C1550   1.469       .  S
O571        C572   1.272   1_556  A
C572       C1557   1.466       .  S
C577       C1558   1.485       .  S
C577        C578   1.403       .  A
C577        C582   1.399   1_556  A
C578        H583   1.084       .  S
C578        C579   1.408       .  A
C579        C580   1.411   1_556  A
C579       C1548   1.447       .  S
C580        H584   1.084       .  S
C580        C581   1.406       .  A
C581       C1544   1.489       .  S
C581        C582   1.399       .  A
C582        H585   1.081       .  S
C586        C587   1.404       .  A
C586        C591   1.403       .  A
C586       C1547   1.447       .  S
C587        H592   1.084       .  S
C587        C588   1.404       .  A
C588        C589   1.405       .  A
C588       C1541   1.449       .  S
C589        H593   1.084       .  S
C589        C590   1.405       .  A
C590        C591   1.404       .  A
C590       C1540   1.448       .  S
C591        H594   1.084       .  S
C595       C1535   1.480       .  S
C595        C596   1.398       .  A
C595        C600   1.404       .  A
C596        H601   1.083       .  S
C596        C597   1.402       .  A
C597       C1630   1.486       .  S
C597        C598   1.406       .  A
C598        H602   1.084       .  S
C598        C599   1.407       .  A
C599        C600   1.407       .  A
C599       C1542   1.449       .  S
C600        H603   1.084       .  S
C604       C1758   1.485       .  S
C604        C605   1.407       .  A
C604        C609   1.401       .  A
C605        H610   1.084       .  S
C605        C606   1.409       .  A
C606        C607   1.407       .  A
C606       C1539   1.448       .  S
C607        H611   1.084       .  S
C607        C608   1.402       .  A
C608       C1531   1.476       .  S
C608        C609   1.396       .  A
C609        H612   1.084       .  S
C613       C1562   1.484       .  S
C613        C614   1.401       .  A
C613        C618   1.398   1_554  A
C614        H619   1.084       .  S
C614        C615   1.407       .  A
C615        C616   1.411   1_554  A
C615       C1529   1.445       .  S
C616        H620   1.084       .  S
C616        C617   1.406       .  A
C617       C1525   1.488       .  S
C617        C618   1.398       .  A
C618        H621   1.081       .  S
C622       C1810   1.479       .  S
C622        C623   1.397       .  A
C622        C627   1.404       .  A
C623        H628   1.083       .  S
C623        C624   1.400       .  A
C624       C1650   1.485       .  S
C624        C625   1.406       .  A
C625        H629   1.084       .  S
C625        C626   1.408       .  A
C626        C627   1.407       .  A
C626       C1523   1.447       .  S
C627        H630   1.084       .  S
C631        C632   1.402       .  A
C631        C636   1.404       .  A
C631       C1521   1.444       .  S
C632        H637   1.085       .  S
C632        C633   1.402       .  A
C633        C634   1.404       .  A
C633       C1530   1.445       .  S
C634        H638   1.084       .  S
C634        C635   1.404       .  A
C635        C636   1.404       .  A
C635       C1524   1.447       .  S
C636        H639   1.084       .  S
C640       C1514   1.484       .  S
C640        C641   1.405       .  A
C640        C645   1.403       .  A
C641        H646   1.084       .  S
C641        C642   1.405       .  A
C642        C643   1.405       .  A
C642       C1522   1.444       .  S
C643        H647   1.084       .  S
C643        C644   1.402       .  A
C644       C1518   1.474       .  S
C644        C645   1.397       .  A
C645        H648   1.083       .  S
O649       Mg651   2.124   1_455  S
O649       Mg657   2.156       .  S
O649        C684   1.237       .  S
C650        O663   1.237       .  S
C650        O687   1.269       .  A
C650        H689   1.081       .  S
Mg651       O680   2.157       .  S
Mg651       O695   2.308       .  S
Mg651       O691   2.249       .  S
Mg651       O662   2.287   1_554  S
O652       Mg694   2.158       .  S
O652       Mg677   2.125   1_556  S
O652        C673   1.237       .  S
O653        C684   1.269       .  A
O653       Mg677   2.285       .  S
C654        O656   1.273       .  A
C654        O668   1.276       .  A
C654       C1532   1.468       .  S
O655        C683   1.269       .  A
O655       Mg657   2.288   1_655  S
O656       Mg688   2.257       .  S
Mg657       O663   2.123       .  S
Mg657       O671   2.256       .  S
Mg657       O659   2.313       .  S
C658        O696   1.273       .  A
C658        O664   1.274   1_655  A
C658       C1505   1.467   1_655  S
O659        C666   1.276       .  A
H660        C673   1.081       .  S
C661        O675   1.237       .  S
C661        O676   1.269       .  A
C661        H686   1.081       .  S
O662        C685   1.269       .  A
O663       Mg677   2.157       .  S
O664       Mg694   2.299       .  S
C665        O678   1.273       .  A
C665        O670   1.274   1_556  A
C665       C1509   1.466   1_556  S
C666        O693   1.273       .  A
C666       C1517   1.469       .  S
Mg667       O674   2.125       .  S
Mg667       O675   2.158       .  S
Mg667       O668   2.310       .  S
Mg667       O669   2.288   1_655  S
Mg667       O696   2.259       .  S
O669        C673   1.269       .  A
O670       Mg677   2.301       .  S
O671        C690   1.273       .  A
O672        C692   1.275   1_556  A
O672       Mg688   2.312       .  S
O674       Mg688   2.158       .  S
O674        C685   1.237       .  S
O675       Mg694   2.124   1_655  S
O676       Mg688   2.287       .  S
Mg677       O693   2.254       .  S
O678       Mg694   2.256       .  S
H679        C684   1.081       .  S
O680       Mg688   2.129   1_554  S
O680        C683   1.237       .  S
H681        C683   1.081       .  S
H682        C685   1.081       .  S
O687       Mg694   2.285   1_554  S
C690        O695   1.275   1_455  A
C690       C1501   1.467   1_455  S
O691        C692   1.272       .  A
C692       C1498   1.467   1_554  S
C697        C698   1.403       .  A
C697        C702   1.405       .  A
C697       C1493   1.446       .  S
C698        H703   1.085       .  S
C698        C699   1.403       .  A
C699        C700   1.405       .  A
C699       C1496   1.448       .  S
C700        H704   1.084       .  S
C700        C701   1.405       .  A
C701        C702   1.405       .  A
C701       C1491   1.449       .  S
C702        H705   1.084       .  S
C706       C1487   1.484       .  S
C706        C707   1.401       .  A
C706        C711   1.402       .  A
C707        H712   1.082       .  S
C707        C708   1.401   1_455  A
C708       C1622   1.490       .  S
C708        C709   1.405       .  A
C709        H713   1.084       .  S
C709        C710   1.408       .  A
C710        C711   1.407   1_655  A
C710       C1494   1.445       .  S
C711        H714   1.084       .  S
C715       C1684   1.476   1_565  S
C715        C716   1.396       .  A
C715        C720   1.402   1_565  A
C716        H721   1.084       .  S
C716        C717   1.400       .  A
C717       C1766   1.486       .  S
C717        C718   1.408       .  A
C718        H722   1.084       .  S
C718        C719   1.410   1_565  A
C719        C720   1.406       .  A
C719       C1495   1.448       .  S
C720        H723   1.084       .  S
C724       C1720   1.487       .  S
C724        C725   1.406       .  A
C724        C729   1.399       .  A
C725        H730   1.084       .  S
C725        C726   1.409       .  A
C726        C727   1.409       .  A
C726       C1492   1.449       .  S
C727        H731   1.084       .  S
C727        C728   1.405       .  A
C728       C1483   1.483       .  S
C728        C729   1.397       .  A
C729        H732   1.083       .  S
C733       C1473   1.474   1_655  S
C733        C734   1.402   1_655  A
C733        C738   1.396       .  A
C734        H739   1.084       .  S
C734        C735   1.407       .  A
C735        C736   1.408   1_455  A
C735       C1481   1.445       .  S
C736        H740   1.084       .  S
C736        C737   1.405       .  A
C737       C1478   1.482       .  S
C737        C738   1.400       .  A
C738        H741   1.085       .  S
C742       C1467   1.476       .  S
C742        C743   1.397       .  A
C742        C747   1.404       .  A
C743        H748   1.085       .  S
C743        C744   1.397   1_556  A
C744       C1510   1.475       .  S
C744        C745   1.403       .  A
C745        H749   1.084       .  S
C745        C746   1.407       .  A
C746        C747   1.408   1_554  A
C746       C1471   1.445       .  S
C747        H750   1.084       .  S
C751        C752   1.403       .  A
C751        C756   1.402       .  A
C751       C1465   1.444       .  S
C752        H757   1.085       .  S
C752        C753   1.403       .  A
C753        C754   1.404       .  A
C753       C1472   1.445       .  S
C754        H758   1.084       .  S
C754        C755   1.404       .  A
C755        C756   1.403       .  A
C755       C1482   1.445       .  S
C756        H759   1.085       .  S
C760       C1462   1.486       .  S
C760        C761   1.400       .  A
C760        C765   1.404       .  A
C761        H766   1.080       .  S
C761        C762   1.400   1_565  A
C762       C1554   1.485       .  S
C762        C763   1.404       .  A
C763        H767   1.084       .  S
C763        C764   1.406       .  A
C764        C765   1.407   1_545  A
C764       C1466   1.444       .  S
C765        H768   1.084       .  S
O769       Mg771   2.144       .  S
O769       Mg777   2.128       .  S
O769        C804   1.237       .  S
C770        O783   1.238       .  S
C770        O807   1.270       .  A
C770        H809   1.081       .  S
Mg771       O800   2.152       .  S
Mg771       O815   2.361       .  S
Mg771       O811   2.277       .  S
Mg771       O782   2.295       .  S
O772       Mg814   2.153       .  S
O772       Mg797   2.095       .  S
O772        C793   1.236       .  S
O773        C804   1.272       .  A
O773       Mg797   2.304       .  S
C774        O776   1.275       .  A
C774        O788   1.274       .  A
C774       C1536   1.468       .  S
O775        C803   1.273       .  A
O775       Mg777   2.311       .  S
O776       Mg808   2.277       .  S
Mg777       O783   2.128       .  S
Mg777       O791   2.226       .  S
Mg777       O779   2.348       .  S
C778        O816   1.274       .  A
C778        O784   1.272       .  A
C778       C1457   1.461       .  S
O779        C786   1.278       .  A
H780        C793   1.081       .  S
C781        O795   1.236       .  S
C781        O796   1.267       .  A
C781        H806   1.081       .  S
O782        C805   1.271       .  A
O783       Mg797   2.138       .  S
O784       Mg814   2.279       .  S
C785        O798   1.271       .  A
C785        O790   1.271       .  A
C785       C1468   1.466       .  S
C786        O813   1.265       .  A
C786       C1488   1.466       .  S
Mg787       O794   2.133       .  S
Mg787       O795   2.163       .  S
Mg787       O788   2.296       .  S
Mg787       O789   2.274       .  S
Mg787       O816   2.267       .  S
O789        C793   1.267       .  A
O790       Mg797   2.286       .  S
O791        C810   1.269       .  A
O792        C812   1.274       .  A
O792       Mg808   2.297       .  S
O794       Mg808   2.161       .  S
O794        C805   1.238       .  S
O795       Mg814   2.113       .  S
O796       Mg808   2.277       .  S
Mg797       O813   2.206       .  S
O798       Mg814   2.263       .  S
H799        C804   1.081       .  S
O800       Mg808   2.146       .  S
O800        C803   1.238       .  S
H801        C803   1.081       .  S
H802        C805   1.081       .  S
O807       Mg814   2.289       .  S
C810        O815   1.281       .  A
C810       C1578   1.470       .  S
O811        C812   1.275       .  A
C812       C1734   1.468       .  S
O817       Mg819   2.141       .  S
O817       Mg825   2.127       .  S
O817        C852   1.239       .  S
C818        O831   1.238       .  S
C818        O855   1.271       .  A
C818        H857   1.081       .  S
Mg819       O848   2.142       .  S
Mg819       O863   2.344       .  S
Mg819       O859   2.273       .  S
Mg819       O830   2.299       .  S
O820       Mg862   2.136       .  S
O820       Mg845   2.128       .  S
O820        C841   1.238       .  S
O821        C852   1.273       .  A
O821       Mg845   2.309       .  S
C822        O824   1.269       .  A
C822        O836   1.278       .  A
C822       C1453   1.468       .  S
O823        C851   1.272       .  A
O823       Mg825   2.304       .  S
O824       Mg856   2.229       .  S
Mg825       O831   2.130       .  S
Mg825       O839   2.231       .  S
Mg825       O827   2.341       .  S
C826        O864   1.273       .  A
C826        O832   1.271       .  A
C826       C1484   1.464       .  S
O827        C834   1.277       .  A
H828        C841   1.081       .  S
C829        O843   1.236       .  S
C829        O844   1.269       .  A
C829        H854   1.081       .  S
O830        C853   1.272       .  A
O831       Mg845   2.124       .  S
O832       Mg862   2.288       .  S
C833        O846   1.267       .  A
C833        O838   1.276       .  A
C833       C1477   1.467       .  S
C834        O861   1.269       .  A
C834       C1449   1.472       .  S
Mg835       O842   2.140       .  S
Mg835       O843   2.147       .  S
Mg835       O836   2.339       .  S
Mg835       O837   2.296       .  S
Mg835       O864   2.269       .  S
O837        C841   1.271       .  A
O838       Mg845   2.331       .  S
O839        C858   1.270       .  A
O840        C860   1.272       .  A
O840       Mg856   2.297       .  S
O842       Mg856   2.142       .  S
O842        C853   1.239       .  S
O843       Mg862   2.114       .  S
O844       Mg856   2.289       .  S
Mg845       O861   2.236       .  S
O846       Mg862   2.231       .  S
H847        C852   1.081       .  S
O848       Mg856   2.124       .  S
O848        C851   1.238       .  S
H849        C851   1.081       .  S
H850        C853   1.081       .  S
O855       Mg862   2.302       .  S
C858        O863   1.278       .  A
C858       C1543   1.469       .  S
O859        C860   1.273       .  A
C860       C1743   1.468       .  S
C865       C1443   1.482       .  S
C865        C866   1.400       .  A
C865        C870   1.401       .  A
C866        H871   1.080       .  S
C866        C867   1.400   1_554  A
C867       C1626   1.483       .  S
C867        C868   1.402       .  A
C868        H872   1.084       .  S
C868        C869   1.405       .  A
C869        C870   1.405   1_556  A
C869       C1447   1.440       .  S
C870        H873   1.084       .  S
C874        C875   1.403       .  A
C874        C879   1.402       .  A
C874       C1440   1.442       .  S
C875        H880   1.084       .  S
C875        C876   1.403       .  A
C876        C877   1.401       .  A
C876       C1441   1.442       .  S
C877        H881   1.085       .  S
C877        C878   1.401       .  A
C878        C879   1.401       .  A
C878       C1448   1.440       .  S
C879        H882   1.085       .  S
C883       C1707   1.487   1_655  S
C883        C884   1.402   1_655  A
C883        C888   1.402       .  A
C884        H889   1.084       .  S
C884        C885   1.406       .  A
C885        C886   1.408   1_455  A
C885       C1442   1.442       .  S
C886        H890   1.084       .  S
C886        C887   1.403       .  A
C887       C1774   1.483       .  S
C887        C888   1.397       .  A
C888        H891   1.081       .  S
C892       C1458   1.474       .  S
C892        C893   1.396       .  A
C892        C897   1.402       .  A
C893        H898   1.085       .  S
C893        C894   1.396       .  A
C894       C1666   1.476       .  S
C894        C895   1.402       .  A
C895        H899   1.084       .  S
C895        C896   1.408       .  A
C896        C897   1.407       .  A
C896       C1439   1.442       .  S
C897        H900   1.084       .  S
O901       Mg903   2.121       .  S
O901       Mg909   2.150       .  S
O901        C936   1.237       .  S
C902        O915   1.237       .  S
C902        O939   1.270       .  A
C902        H941   1.081       .  S
Mg903       O932   2.148       .  S
Mg903       O947   2.285       .  S
Mg903       O943   2.261       .  S
Mg903       O914   2.290       .  S
O904       Mg946   2.150       .  S
O904       Mg929   2.119       .  S
O904        C925   1.238       .  S
O905        C936   1.270       .  A
O905       Mg929   2.291       .  S
C906        O908   1.273       .  A
C906        O920   1.273       .  A
C906       C1435   1.470       .  S
O907        C935   1.270       .  A
O907       Mg909   2.292       .  S
O908       Mg940   2.274       .  S
Mg909       O915   2.117       .  S
Mg909       O923   2.254       .  S
Mg909       O911   2.296       .  S
C910        O948   1.271       .  A
C910        O916   1.274       .  A
C910       C1566   1.467       .  S
O911        C918   1.274       .  A
H912        C925   1.081       .  S
C913        O927   1.238       .  S
C913        O928   1.271       .  A
C913        H938   1.081       .  S
O914        C937   1.270       .  A
O915       Mg929   2.148       .  S
O916       Mg946   2.290       .  S
C917        O930   1.273       .  A
C917        O922   1.274       .  A
C917       C1728   1.471       .  S
C918        O945   1.272       .  A
C918       C1431   1.470       .  S
Mg919       O926   2.114       .  S
Mg919       O927   2.148       .  S
Mg919       O920   2.285       .  S
Mg919       O921   2.293       .  S
Mg919       O948   2.257       .  S
O921        C925   1.271       .  A
O922       Mg929   2.291       .  S
O923        C942   1.272       .  A
O924        C944   1.275       .  A
O924       Mg940   2.294       .  S
O926       Mg940   2.148       .  S
O926        C937   1.238       .  S
O927       Mg946   2.122       .  S
O928       Mg940   2.294       .  S
Mg929       O945   2.259       .  S
O930       Mg946   2.268       .  S
H931        C936   1.081       .  S
O932       Mg940   2.119       .  S
O932        C935   1.238       .  S
H933        C935   1.081       .  S
H934        C937   1.081       .  S
O939       Mg946   2.291       .  S
C942        O947   1.273       .  A
C942       C1444   1.465       .  S
O943        C944   1.272       .  A
C944       C1461   1.468       .  S
C949       C1450   1.489       .  S
C949        C950   1.400       .  A
C949        C954   1.407       .  A
C950        H955   1.082       .  S
C950        C951   1.400   1_545  A
C951       C1618   1.487       .  S
C951        C952   1.404       .  A
C952        H956   1.084       .  S
C952        C953   1.408       .  A
C953        C954   1.411   1_565  A
C953       C1429   1.450       .  S
C954        H957   1.084       .  S
C958        C959   1.404       .  A
C958        C963   1.407       .  A
C958       C1430   1.450       .  S
C959        H964   1.084       .  S
C959        C960   1.404       .  A
C960        C961   1.406       .  A
C960       C1426   1.450       .  S
C961        H965   1.084       .  S
C961        C962   1.406       .  A
C962        C963   1.407       .  A
C962       C1427   1.454       .  S
C963        H966   1.084       .  S
C967       C1770   1.485       .  S
C967        C968   1.396       .  A
C967        C972   1.407       .  A
C968        H973   1.084       .  S
C968        C969   1.395       .  A
C969       C1654   1.483       .  S
C969        C970   1.407   1_556  A
C970        H974   1.084       .  S
C970        C971   1.411       .  A
C971        C972   1.412   1_554  A
C971       C1428   1.454       .  S
C972        H975   1.084       .  S
C976       C1436   1.489       .  S
C976        C977   1.400       .  A
C976        C981   1.403       .  A
C977        H982   1.080       .  S
C977        C978   1.401       .  A
C978       C1692   1.494       .  S
C978        C979   1.407       .  A
C979        H983   1.084       .  S
C979        C980   1.412       .  A
C980        C981   1.408       .  A
C980       C1425   1.450       .  S
C981        H984   1.084       .  S
C985        C986   1.402       .  A
C985        C990   1.406       .  A
C985       C1423   1.446       .  S
C986        H991   1.085       .  S
C986        C987   1.402       .  A
C987        C988   1.404       .  A
C987       C1421   1.445       .  S
C988        H992   1.084       .  S
C988        C989   1.405       .  A
C989        C990   1.406       .  A
C989       C1419   1.450       .  S
C990        H993   1.084       .  S
C994       C1432   1.484       .  S
C994        C995   1.402       .  A
C994        C999   1.405       .  A
C995       H1000   1.083       .  S
C995        C996   1.397   1_455  A
C996       C1502   1.475       .  S
C996        C997   1.402       .  A
C997       H1001   1.084       .  S
C997        C998   1.406       .  A
C998        C999   1.406   1_655  A
C998       C1422   1.445       .  S
C999       H1002   1.084       .  S
C1003      C1753   1.484       .  S
C1003      C1004   1.405       .  A
C1003      C1008   1.399       .  A
C1004      H1009   1.084       .  S
C1004      C1005   1.409       .  A
C1005      C1006   1.410       .  A
C1005      C1420   1.450       .  S
C1006      H1010   1.084       .  S
C1006      C1007   1.406       .  A
C1007      C1415   1.481       .  S
C1007      C1008   1.396       .  A
C1008      H1011   1.084       .  S
C1012      C1634   1.486       .  S
C1012      C1013   1.400       .  A
C1012      C1017   1.403       .  A
C1013      H1018   1.082       .  S
C1013      C1014   1.399       .  A
C1014      C1454   1.486       .  S
C1014      C1015   1.405       .  A
C1015      H1019   1.084       .  S
C1015      C1016   1.409       .  A
C1016      C1017   1.407       .  A
C1016      C1424   1.446       .  S
C1017      H1020   1.084       .  S
C1021      C1818   1.487       .  S
C1021      C1022   1.400       .  A
C1021      C1026   1.404       .  A
C1022      H1027   1.081       .  S
C1022      C1023   1.400   1_655  A
C1023      C1610   1.489       .  S
C1023      C1024   1.405       .  A
C1024      H1028   1.084       .  S
C1024      C1025   1.409       .  A
C1025      C1026   1.409   1_455  A
C1025      C1413   1.447       .  S
C1026      H1029   1.084       .  S
C1030      C1031   1.405       .  A
C1030      C1035   1.403       .  A
C1030      C1414   1.447       .  S
C1031      H1036   1.084       .  S
C1031      C1032   1.406       .  A
C1032      C1033   1.401       .  A
C1032      C1411   1.445       .  S
C1033      H1037   1.085       .  S
C1033      C1034   1.401       .  A
C1034      C1035   1.402       .  A
C1034      C1409   1.442       .  S
C1035      H1038   1.085       .  S
C1039      C1406   1.486       .  S
C1039      C1040   1.401       .  A
C1039      C1044   1.403       .  A
C1040      H1045   1.082       .  S
C1040      C1041   1.401   1_545  A
C1041      C1700   1.484       .  S
C1041      C1042   1.402       .  A
C1042      H1046   1.084       .  S
C1042      C1043   1.407       .  A
C1043      C1044   1.406   1_565  A
C1043      C1410   1.441       .  S
C1044      H1047   1.084       .  S
C1048      C1401   1.485       .  S
C1048      C1049   1.396       .  A
C1048      C1053   1.407       .  A
C1049      H1054   1.083       .  S
C1049      C1050   1.397       .  A
C1050      C1703   1.479       .  S
C1050      C1051   1.400       .  A
C1051      H1055   1.084       .  S
C1051      C1052   1.405       .  A
C1052      C1053   1.411       .  A
C1052      C1412   1.445       .  S
C1053      H1056   1.084       .  S
C1057      C1395   1.490       .  S
C1057      C1058   1.399       .  A
C1057      C1062   1.408       .  A
C1058      H1063   1.081       .  S
C1058      C1059   1.399   1_565  A
C1059      C1606   1.487       .  S
C1059      C1060   1.404       .  A
C1060      H1064   1.084       .  S
C1060      C1061   1.409       .  A
C1061      C1062   1.412   1_545  A
C1061      C1399   1.452       .  S
C1062      H1065   1.084       .  S
C1066      C1067   1.405       .  A
C1066      C1071   1.408       .  A
C1066      C1400   1.452       .  S
C1067      H1072   1.084       .  S
C1067      C1068   1.405       .  A
C1068      C1069   1.403       .  A
C1068      C1393   1.448       .  S
C1069      H1073   1.085       .  S
C1069      C1070   1.403       .  A
C1070      C1071   1.407       .  A
C1070      C1391   1.451       .  S
C1071      H1074   1.084       .  S
C1075      C1662   1.485       .  S
C1075      C1076   1.408       .  A
C1075      C1080   1.397   1_556  A
C1076      H1081   1.084       .  S
C1076      C1077   1.411       .  A
C1077      C1078   1.407   1_556  A
C1077      C1392   1.451       .  S
C1078      H1082   1.084       .  S
C1078      C1079   1.404       .  A
C1079      C1387   1.483       .  S
C1079      C1080   1.399       .  A
C1080      H1083   1.083       .  S
C1084      C1782   1.480       .  S
C1084      C1085   1.396       .  A
C1084      C1089   1.406       .  A
C1085      H1090   1.085       .  S
C1085      C1086   1.396       .  A
C1086      C1688   1.476       .  S
C1086      C1087   1.403       .  A
C1087      H1091   1.084       .  S
C1087      C1088   1.408       .  A
C1088      C1089   1.410       .  A
C1088      C1394   1.448       .  S
C1089      H1092   1.084       .  S
O1093     Mg1095   2.132       .  S
O1093     Mg1101   2.149       .  S
O1093      C1128   1.237       .  S
C1094      O1107   1.238       .  S
C1094      O1131   1.271       .  A
C1094      H1133   1.081       .  S
Mg1095     O1124   2.157       .  S
Mg1095     O1139   2.309       .  S
Mg1095     O1135   2.257       .  S
Mg1095     O1106   2.286   1_565  S
O1096     Mg1138   2.152       .  S
O1096     Mg1121   2.106   1_545  S
O1096      C1117   1.237       .  S
O1097      C1128   1.270   1_545  A
O1097     Mg1121   2.297   1_645  S
C1098      O1100   1.275       .  A
C1098      O1112   1.276   1_655  A
C1098      C1474   1.469   1_655  S
O1099      C1127   1.271       .  A
O1099     Mg1101   2.298       .  S
O1100     Mg1132   2.265       .  S
Mg1101     O1107   2.139   1_655  S
Mg1101     O1115   2.265       .  S
Mg1101     O1103   2.363       .  S
C1102      O1140   1.274       .  A
C1102      O1108   1.273       .  A
C1102      C1384   1.465       .  S
O1103      C1110   1.281   1_655  A
H1104      C1117   1.081       .  S
C1105      O1119   1.236       .  S
C1105      O1120   1.268       .  A
C1105      H1130   1.081       .  S
O1106      C1129   1.270       .  A
O1107     Mg1121   2.140       .  S
O1108     Mg1138   2.296       .  S
C1109      O1122   1.271       .  A
C1109      O1114   1.273   1_545  A
C1109      C1582   1.468       .  S
C1110      O1137   1.266       .  A
C1110      C1379   1.466       .  S
Mg1111     O1118   2.127   1_455  S
Mg1111     O1119   2.157       .  S
Mg1111     O1112   2.305       .  S
Mg1111     O1113   2.281       .  S
Mg1111     O1140   2.264       .  S
O1113      C1117   1.268       .  A
O1114     Mg1121   2.302       .  S
O1115      C1134   1.274       .  A
O1116      C1136   1.276   1_545  A
O1116     Mg1132   2.314       .  S
O1118     Mg1132   2.159       .  S
O1118      C1129   1.237       .  S
O1119     Mg1138   2.115       .  S
O1120     Mg1132   2.282   1_455  S
Mg1121     O1137   2.198       .  S
O1122     Mg1138   2.254       .  S
H1123      C1128   1.081       .  S
O1124     Mg1132   2.137   1_565  S
O1124      C1127   1.238       .  S
H1125      C1127   1.081       .  S
H1126      C1129   1.081       .  S
O1131     Mg1138   2.293   1_565  S
C1134      O1139   1.275       .  A
C1134      C1416   1.467       .  S
O1135      C1136   1.273       .  A
C1136      C1600   1.470       .  S
C1141      C1506   1.474       .  S
C1141      C1142   1.396   1_455  A
C1141      C1146   1.402       .  A
C1142      H1147   1.085       .  S
C1142      C1143   1.397       .  A
C1143      C1797   1.474       .  S
C1143      C1144   1.403       .  A
C1144      H1148   1.084       .  S
C1144      C1145   1.407   1_655  A
C1145      C1146   1.407       .  A
C1145      C1377   1.443       .  S
C1146      H1149   1.084       .  S
C1150      C1151   1.403       .  A
C1150      C1155   1.402       .  A
C1150      C1378   1.444       .  S
C1151      H1156   1.084       .  S
C1151      C1152   1.403       .  A
C1152      C1153   1.405       .  A
C1152      C1376   1.447       .  S
C1153      H1157   1.084       .  S
C1153      C1154   1.405       .  A
C1154      C1155   1.402       .  A
C1154      C1373   1.446       .  S
C1155      H1158   1.085       .  S
C1159      C1383   1.478       .  S
C1159      C1160   1.404       .  A
C1159      C1164   1.396       .  A
C1160      H1165   1.084       .  S
C1160      C1161   1.408       .  A
C1161      C1162   1.407       .  A
C1161      C1374   1.446       .  S
C1162      H1166   1.084       .  S
C1162      C1163   1.404       .  A
C1163      C1369   1.483       .  S
C1163      C1164   1.399       .  A
C1164      H1167   1.083       .  S
C1168      C1646   1.485       .  S
C1168      C1169   1.403       .  A
C1168      C1173   1.398       .  A
C1169      H1174   1.084       .  S
C1169      C1170   1.408       .  A
C1170      C1171   1.411       .  A
C1170      C1375   1.447       .  S
C1171      H1175   1.084       .  S
C1171      C1172   1.406       .  A
C1172      C1366   1.488       .  S
C1172      C1173   1.398       .  A
C1173      H1176   1.081       .  S
O1177     Mg1179   2.123       .  S
O1177     Mg1185   2.151       .  S
O1177      C1212   1.238       .  S
C1178      O1191   1.238       .  S
C1178      O1215   1.271       .  A
C1178      H1217   1.081       .  S
Mg1179     O1208   2.150       .  S
Mg1179     O1223   2.294       .  S
Mg1179     O1219   2.265       .  S
Mg1179     O1190   2.292       .  S
O1180     Mg1222   2.147       .  S
O1180     Mg1205   2.117       .  S
O1180      C1201   1.238       .  S
O1181      C1212   1.270       .  A
O1181     Mg1205   2.293       .  S
C1182      O1184   1.272       .  A
C1182      O1196   1.275       .  A
C1182      C1370   1.468       .  S
O1183      C1211   1.270       .  A
O1183     Mg1185   2.291       .  S
O1184     Mg1216   2.254       .  S
Mg1185     O1191   2.123       .  S
Mg1185     O1199   2.263       .  S
Mg1185     O1187   2.295       .  S
C1186      O1224   1.273       .  A
C1186      O1192   1.273       .  A
C1186      C1405   1.468       .  S
O1187      C1194   1.274       .  A
H1188      C1201   1.081       .  S
C1189      O1203   1.237       .  S
C1189      O1204   1.270       .  A
C1189      H1214   1.081       .  S
O1190      C1213   1.270       .  A
O1191     Mg1205   2.150       .  S
O1192     Mg1222   2.283       .  S
C1193      O1206   1.272       .  A
C1193      O1198   1.274       .  A
C1193      C1587   1.470       .  S
C1194      O1221   1.272       .  A
C1194      C1388   1.468       .  S
Mg1195     O1202   2.122       .  S
Mg1195     O1203   2.150       .  S
Mg1195     O1196   2.297       .  S
Mg1195     O1197   2.292       .  S
Mg1195     O1224   2.270       .  S
O1197      C1201   1.270       .  A
O1198     Mg1205   2.295       .  S
O1199      C1218   1.273       .  A
O1200      C1220   1.274       .  A
O1200     Mg1216   2.289       .  S
O1202     Mg1216   2.149       .  S
O1202      C1213   1.237       .  S
O1203     Mg1222   2.117       .  S
O1204     Mg1216   2.290       .  S
Mg1205     O1221   2.256       .  S
O1206     Mg1222   2.261       .  S
H1207      C1212   1.081       .  S
O1208     Mg1216   2.119       .  S
O1208      C1211   1.237       .  S
H1209      C1211   1.081       .  S
H1210      C1213   1.081       .  S
O1215     Mg1222   2.293       .  S
C1218      O1223   1.274       .  A
C1218      C1513   1.470       .  S
O1219      C1220   1.272       .  A
C1220      C1362   1.469       .  S
C1225      C1226   1.403       .  A
C1225      C1230   1.403       .  A
C1225      C1356   1.443       .  S
C1226      H1231   1.084       .  S
C1226      C1227   1.402       .  A
C1227      C1228   1.402       .  A
C1227      C1360   1.442       .  S
C1228      H1232   1.085       .  S
C1228      C1229   1.402       .  A
C1229      C1230   1.403       .  A
C1229      C1357   1.442       .  S
C1230      H1233   1.084       .  S
C1234      C1614   1.482       .  S
C1234      C1235   1.399   1_554  A
C1234      C1239   1.404       .  A
C1235      H1240   1.083       .  S
C1235      C1236   1.396       .  A
C1236      C1794   1.475       .  S
C1236      C1237   1.401       .  A
C1237      H1241   1.084       .  S
C1237      C1238   1.406   1_556  A
C1238      C1239   1.407       .  A
C1238      C1355   1.443       .  S
C1239      H1242   1.084       .  S
C1243      C1716   1.487       .  S
C1243      C1244   1.403       .  A
C1243      C1248   1.403   1_655  A
C1244      H1249   1.084       .  S
C1244      C1245   1.406       .  A
C1245      C1246   1.405   1_655  A
C1245      C1358   1.442       .  S
C1246      H1250   1.084       .  S
C1246      C1247   1.403       .  A
C1247      C1361   1.486       .  S
C1247      C1248   1.402       .  A
C1248      H1251   1.079       .  S
C1252      C1802   1.472       .  S
C1252      C1253   1.395       .  A
C1252      C1257   1.401       .  A
C1253      H1258   1.085       .  S
C1253      C1254   1.401       .  A
C1254      C1658   1.479       .  S
C1254      C1255   1.403       .  A
C1255      H1259   1.084       .  S
C1255      C1256   1.407       .  A
C1256      C1257   1.406       .  A
C1256      C1359   1.442       .  S
C1257      H1260   1.084       .  S
C1261      C1262   1.404       .  A
C1261      C1266   1.402       .  A
C1261      C1350   1.444       .  S
C1262      H1267   1.084       .  S
C1262      C1263   1.404       .  A
C1263      C1264   1.402       .  A
C1263      C1352   1.443       .  S
C1264      H1268   1.085       .  S
C1264      C1265   1.402       .  A
C1265      C1266   1.402       .  A
C1265      C1353   1.442       .  S
C1266      H1269   1.085       .  S
C1270      C1345   1.486       .  S
C1270      C1271   1.400       .  A
C1270      C1275   1.402       .  A
C1271      H1276   1.084       .  S
C1271      C1272   1.401   1_455  A
C1272      C1380   1.486       .  S
C1272      C1273   1.402       .  A
C1273      H1277   1.084       .  S
C1273      C1274   1.408       .  A
C1274      C1275   1.408   1_655  A
C1274      C1354   1.442       .  S
C1275      H1278   1.084       .  S
C1279      C1778   1.476       .  S
C1279      C1280   1.397       .  A
C1279      C1284   1.402       .  A
C1280      H1285   1.083       .  S
C1280      C1281   1.401   1_545  A
C1281      C1549   1.483       .  S
C1281      C1282   1.405       .  A
C1282      H1286   1.084       .  S
C1282      C1283   1.406       .  A
C1283      C1284   1.406   1_565  A
C1283      C1349   1.444       .  S
C1284      H1287   1.084       .  S
C1288      C1805   1.482       .  S
C1288      C1289   1.401       .  A
C1288      C1293   1.404       .  A
C1289      H1294   1.084       .  S
C1289      C1290   1.396   1_554  A
C1290      C1497   1.475       .  S
C1290      C1291   1.402       .  A
C1291      H1295   1.084       .  S
C1291      C1292   1.406       .  A
C1292      C1293   1.407   1_556  A
C1292      C1351   1.443       .  S
C1293      H1296   1.084       .  S
O1297     Mg1299   2.117       .  S
O1297     Mg1305   2.141       .  S
O1297      C1332   1.238       .  S
C1298      O1311   1.239       .  S
C1298      O1335   1.273       .  A
C1298      H1337   1.081       .  S
Mg1299     O1328   2.136       .  S
Mg1299     O1343   2.282       .  S
Mg1299     O1339   2.217       .  S
Mg1299     O1310   2.292       .  S
O1300     Mg1342   2.118       .  S
O1300     Mg1325   2.138       .  S
O1300      C1321   1.240       .  S
O1301      C1332   1.271       .  A
O1301     Mg1325   2.301       .  S
C1302      O1304   1.271       .  A
C1302      O1316   1.277       .  A
C1302      C1396   1.472       .  S
O1303      C1331   1.272       .  A
O1303     Mg1305   2.295       .  S
O1304     Mg1336   2.243       .  S
Mg1305     O1311   2.137       .  S
Mg1305     O1319   2.270       .  S
Mg1305     O1307   2.336       .  S
C1306      O1344   1.268       .  A
C1306      O1312   1.276       .  A
C1306      C1526   1.468       .  S
O1307      C1314   1.278       .  A
H1308      C1321   1.081       .  S
C1309      O1323   1.238       .  S
C1309      O1324   1.273       .  A
C1309      H1334   1.081       .  S
O1310      C1333   1.270       .  A
O1311     Mg1325   2.127       .  S
O1312     Mg1342   2.337       .  S
C1313      O1326   1.269       .  A
C1313      O1318   1.278       .  A
C1313      C1670   1.474       .  S
C1314      O1341   1.271       .  A
C1314      C1365   1.469       .  S
Mg1315     O1322   2.116       .  S
Mg1315     O1323   2.117       .  S
Mg1315     O1316   2.337       .  S
Mg1315     O1317   2.316       .  S
Mg1315     O1344   2.228       .  S
O1317      C1321   1.275       .  A
O1318     Mg1325   2.353       .  S
O1319      C1338   1.272       .  A
O1320      C1340   1.278       .  A
O1320     Mg1336   2.344       .  S
O1322     Mg1336   2.125       .  S
O1322      C1333   1.237       .  S
O1323     Mg1342   2.133       .  S
O1324     Mg1336   2.309       .  S
Mg1325     O1341   2.240       .  S
O1326     Mg1342   2.236       .  S
H1327      C1332   1.081       .  S
O1328     Mg1336   2.127       .  S
O1328      C1331   1.239       .  S
H1329      C1331   1.081       .  S
H1330      C1333   1.081       .  S
O1335     Mg1342   2.309       .  S
C1338      O1343   1.270       .  A
C1338      C1402   1.463       .  S
O1339      C1340   1.267       .  A
C1340      C1346   1.467       .  S
C1345      C1346   1.344       .  D
C1345      H1347   1.086       .  S
C1346      H1348   1.087       .  S
C1349      C1350   1.208       .  T
C1351      C1352   1.208       .  T
C1353      C1354   1.207       .  T
C1355      C1356   1.208       .  T
C1357      C1358   1.207       .  T
C1359      C1360   1.207       .  T
C1361      C1362   1.347       .  D
C1361      H1363   1.086       .  S
C1362      H1364   1.085       .  S
C1365      C1366   1.349       .  D
C1365      H1367   1.087       .  S
C1366      H1368   1.086       .  S
C1369      C1370   1.348       .  D
C1369      H1371   1.086       .  S
C1370      H1372   1.086       .  S
C1373      C1374   1.210       .  T
C1375      C1376   1.211       .  T
C1377      C1378   1.208       .  T
C1379      C1380   1.343   1_455  D
C1379      H1381   1.088       .  S
C1380      H1382   1.086       .  S
C1383      C1384   1.345       .  D
C1383      H1385   1.086       .  S
C1384      H1386   1.087       .  S
C1387      C1388   1.348       .  D
C1387      H1389   1.086       .  S
C1388      H1390   1.086       .  S
C1391      C1392   1.213       .  T
C1393      C1394   1.211       .  T
C1395      C1396   1.350       .  D
C1395      H1397   1.086       .  S
C1396      H1398   1.087       .  S
C1399      C1400   1.213       .  T
C1401      C1402   1.349       .  D
C1401      H1403   1.086       .  S
C1402      H1404   1.086       .  S
C1405      C1406   1.347       .  D
C1405      H1407   1.085       .  S
C1406      H1408   1.086       .  S
C1409      C1410   1.207       .  T
C1411      C1412   1.209       .  T
C1413      C1414   1.210       .  T
C1415      C1416   1.347       .  D
C1415      H1417   1.086       .  S
C1416      H1418   1.087       .  S
C1419      C1420   1.212       .  T
C1421      C1422   1.209       .  T
C1423      C1424   1.210       .  T
C1425      C1426   1.212       .  T
C1427      C1428   1.214       .  T
C1429      C1430   1.212       .  T
C1431      C1432   1.347       .  D
C1431      H1433   1.086       .  S
C1432      H1434   1.087       .  S
C1435      C1436   1.348       .  D
C1435      H1437   1.085       .  S
C1436      H1438   1.086       .  S
C1439      C1440   1.207       .  T
C1441      C1442   1.207       .  T
C1443      C1444   1.346       .  D
C1443      H1445   1.086       .  S
C1444      H1446   1.086       .  S
C1447      C1448   1.206       .  T
C1449      C1450   1.348       .  D
C1449      H1451   1.087       .  S
C1450      H1452   1.086       .  S
C1453      C1454   1.346       .  D
C1453      H1455   1.088       .  S
C1454      H1456   1.086       .  S
C1457      C1458   1.343       .  D
C1457      H1459   1.087       .  S
C1458      H1460   1.086       .  S
C1461      C1462   1.348       .  D
C1461      H1463   1.086       .  S
C1462      H1464   1.086       .  S
C1465      C1466   1.209       .  T
C1467      C1468   1.343       .  D
C1467      H1469   1.086       .  S
C1468      H1470   1.087       .  S
C1471      C1472   1.209       .  T
C1473      C1474   1.343       .  D
C1473      H1475   1.086       .  S
C1474      H1476   1.087       .  S
C1477      C1478   1.344       .  D
C1477      H1479   1.087       .  S
C1478      H1480   1.086       .  S
C1481      C1482   1.209       .  T
C1483      C1484   1.347       .  D
C1483      H1485   1.086       .  S
C1484      H1486   1.086       .  S
C1487      C1488   1.343       .  D
C1487      H1489   1.086       .  S
C1488      H1490   1.088       .  S
C1491      C1492   1.212       .  T
C1493      C1494   1.210       .  T
C1495      C1496   1.211       .  T
C1497      C1498   1.345       .  D
C1497      H1499   1.087       .  S
C1498      H1500   1.087   1_556  S
C1501      C1502   1.344       .  D
C1501      H1503   1.087   1_655  S
C1502      H1504   1.086       .  S
C1505      C1506   1.343       .  D
C1505      H1507   1.087       .  S
C1506      H1508   1.086       .  S
C1509      C1510   1.344       .  D
C1509      H1511   1.087       .  S
C1510      H1512   1.086       .  S
C1513      C1514   1.346       .  D
C1513      H1515   1.086       .  S
C1514      H1516   1.087       .  S
C1517      C1518   1.343       .  D
C1517      H1519   1.087       .  S
C1518      H1520   1.087       .  S
C1521      C1522   1.209       .  T
C1523      C1524   1.211       .  T
C1525      C1526   1.348       .  D
C1525      H1527   1.086       .  S
C1526      H1528   1.087       .  S
C1529      C1530   1.209       .  T
C1531      C1532   1.344       .  D
C1531      H1533   1.086       .  S
C1532      H1534   1.087       .  S
C1535      C1536   1.344       .  D
C1535      H1537   1.086       .  S
C1536      H1538   1.087       .  S
C1539      C1540   1.211       .  T
C1541      C1542   1.211       .  T
C1543      C1544   1.349       .  D
C1543      H1545   1.087       .  S
C1544      H1546   1.086       .  S
C1547      C1548   1.211       .  T
C1549      C1550   1.347   1_565  D
C1549      H1551   1.087       .  S
C1550      H1552   1.086       .  S
C1553      C1554   1.348   1_565  D
C1553      H1555   1.086       .  S
C1554      H1556   1.086       .  S
C1557      C1558   1.347   1_554  D
C1557      H1559   1.086       .  S
C1558      H1560   1.086       .  S
C1561      C1562   1.346   1_556  D
C1561      H1563   1.086       .  S
C1562      H1564   1.086       .  S
C1565      C1566   1.348       .  D
C1565      H1567   1.086       .  S
C1566      H1568   1.086       .  S
C1569      C1570   1.346       .  D
C1569      H1571   1.086       .  S
C1570      H1572   1.086       .  S
C1573      C1574   1.210       .  T
C1575      C1576   1.209       .  T
C1577      C1578   1.347       .  D
C1577      H1579   1.086       .  S
C1578      H1580   1.087       .  S
C1581      C1582   1.344   1_565  D
C1581      H1583   1.086       .  S
C1582      H1584   1.087       .  S
C1585      C1586   1.211       .  T
C1587      C1588   1.349       .  D
C1587      H1589   1.086       .  S
C1588      H1590   1.086       .  S
C1591      C1592   1.348       .  D
C1591      H1593   1.086       .  S
C1592      H1594   1.086       .  S
C1595      C1596   1.211       .  T
C1597      C1598   1.210       .  T
C1599      C1600   1.345   1_545  D
C1599      H1601   1.086       .  S
C1600      H1602   1.087       .  S
C1603      C1604   1.211       .  T
C1605      C1606   1.348   1_565  D
C1605      H1607   1.086       .  S
C1606      H1608   1.086       .  S
C1609      C1610   1.349   1_655  D
C1609      H1611   1.085       .  S
C1610      H1612   1.086       .  S
C1613      C1614   1.348   1_556  D
C1613      H1615   1.086       .  S
C1614      H1616   1.086       .  S
C1617      C1618   1.348   1_545  D
C1617      H1619   1.086       .  S
C1618      H1620   1.086       .  S
C1621      C1622   1.349   1_455  D
C1621      H1623   1.085       .  S
C1622      H1624   1.086       .  S
C1625      C1626   1.347   1_554  D
C1625      H1627   1.086       .  S
C1626      H1628   1.086       .  S
C1629      C1630   1.348       .  D
C1629      H1631   1.086       .  S
C1630      H1632   1.086       .  S
C1633      C1634   1.347       .  D
C1633      H1635   1.086       .  S
C1634      H1636   1.086       .  S
C1637      C1638   1.348       .  D
C1637      H1639   1.086       .  S
C1638      H1640   1.086       .  S
C1641      C1642   1.348       .  D
C1641      H1643   1.086       .  S
C1642      H1644   1.085       .  S
C1645      C1646   1.347       .  D
C1645      H1647   1.086       .  S
C1646      H1648   1.086       .  S
C1649      C1650   1.349       .  D
C1649      H1651   1.086       .  S
C1650      H1652   1.086       .  S
C1653      C1654   1.348       .  D
C1653      H1655   1.087       .  S
C1654      H1656   1.086   1_556  S
C1657      C1658   1.342       .  D
C1657      H1659   1.088       .  S
C1658      H1660   1.086       .  S
C1661      C1662   1.349   1_554  D
C1661      H1663   1.087       .  S
C1662      H1664   1.086       .  S
C1665      C1666   1.342       .  D
C1665      H1667   1.088       .  S
C1666      H1668   1.086       .  S
C1669      C1670   1.350       .  D
C1669      H1671   1.086       .  S
C1670      H1672   1.087       .  S
C1673      C1674   1.346       .  D
C1673      H1675   1.086       .  S
C1674      H1676   1.088       .  S
C1677      C1678   1.215       .  T
C1679      C1680   1.214       .  T
C1681      C1682   1.215       .  T
C1683      C1684   1.343   1_565  D
C1683      H1685   1.087       .  S
C1684      H1686   1.086       .  S
C1687      C1688   1.343       .  D
C1687      H1689   1.087       .  S
C1688      H1690   1.086       .  S
C1691      C1692   1.348       .  D
C1691      H1693   1.087       .  S
C1692      H1694   1.086       .  S
C1695      C1696   1.346       .  D
C1695      H1697   1.087       .  S
C1696      H1698   1.086       .  S
C1699      C1700   1.343   1_545  D
C1699      H1701   1.088       .  S
C1700      H1702   1.086       .  S
C1703      C1704   1.345       .  D
C1703      H1705   1.086       .  S
C1704      H1706   1.087       .  S
C1707      C1708   1.346   1_455  D
C1707      H1709   1.087       .  S
C1708      H1710   1.083       .  S
C1711      C1712   1.339       .  D
C1711      H1713   1.087       .  S
C1712      H1714   1.087       .  S
C1715      C1716   1.346   1_455  D
C1715      H1717   1.086       .  S
C1716      H1718   1.086       .  S
C1719      C1720   1.348       .  D
C1719      H1721   1.087       .  S
C1720      H1722   1.086       .  S
C1723      C1724   1.347       .  D
C1723      H1725   1.086       .  S
C1724      H1726   1.086       .  S
C1727      C1728   1.348       .  D
C1727      H1729   1.086       .  S
C1728      H1730   1.085       .  S
C1731      C1732   1.210       .  T
C1733      C1734   1.347       .  D
C1733      H1735   1.086       .  S
C1734      H1736   1.087       .  S
C1737      C1738   1.342       .  D
C1737      H1739   1.087       .  S
C1738      H1740   1.086       .  S
C1741      C1742   1.211       .  T
C1743      C1744   1.348       .  D
C1743      H1745   1.087       .  S
C1744      H1746   1.086       .  S
C1747      C1748   1.347       .  D
C1747      H1749   1.086       .  S
C1748      H1750   1.088       .  S
C1751      C1752   1.213       .  T
C1753      C1754   1.346       .  D
C1753      H1755   1.086       .  S
C1754      H1756   1.087       .  S
C1757      C1758   1.346       .  D
C1757      H1759   1.087       .  S
C1758      H1760   1.086       .  S
C1761      C1762   1.348       .  D
C1761      H1763   1.087       .  S
C1762      H1764   1.086       .  S
C1765      C1766   1.348       .  D
C1765      H1767   1.087       .  S
C1766      H1768   1.086       .  S
C1769      C1770   1.348       .  D
C1769      H1771   1.087       .  S
C1770      H1772   1.086       .  S
C1773      C1774   1.349       .  D
C1773      H1775   1.088       .  S
C1774      H1776   1.086       .  S
C1777      C1778   1.343       .  D
C1777      H1779   1.087       .  S
C1778      H1780   1.086       .  S
C1781      C1782   1.346       .  D
C1781      H1783   1.087       .  S
C1782      H1784   1.086       .  S
C1785      C1786   1.347       .  D
C1785      H1787   1.087       .  S
C1786      H1788   1.086       .  S
C1789      C1790   1.344       .  D
C1789      H1791   1.086       .  S
C1790      H1792   1.088       .  S
C1793      C1794   1.343       .  D
C1793      H1795   1.087       .  S
C1794      H1796   1.086       .  S
C1797      C1798   1.342       .  D
C1797      H1799   1.086       .  S
C1798      H1800   1.087       .  S
C1801      C1802   1.342       .  D
C1801      H1803   1.087       .  S
C1802      H1804   1.086       .  S
C1805      C1806   1.343       .  D
C1805      H1807   1.086       .  S
C1806      H1808   1.088       .  S
C1809      C1810   1.344       .  D
C1809      H1811   1.087       .  S
C1810      H1812   1.086       .  S
C1813      C1814   1.346       .  D
C1813      H1815   1.086       .  S
C1814      H1816   1.087       .  S
C1817      C1818   1.346       .  D
C1817      H1819   1.087       .  S
C1818      H1820   1.086       .  S
C1821      C1822   1.346       .  D
C1821      H1823   1.087       .  S
C1822      H1824   1.086       .  S
