geometry optimzed in LAMMPS
_audit_creation_date              2020-11-30 
_audit_creation_method            'lammps2cif' 
_symmetry_space_group_name_H-M    'P1' 
_symmetry_Int_Tables_number       1 
_symmetry_cell_setting            triclinic 
loop_ 
_symmetry_equiv_pos_as_xyz 
  x,y,z 
_cell_length_a                    50.58565677 
_cell_length_b                    98.53700663701454 
_cell_length_c                    43.00400816321803 
_cell_angle_alpha                 89.82568614816337 
_cell_angle_beta                  117.74251830717124 
_cell_angle_gamma                 89.95566701339263 
loop_ 
_atom_site_label 
_atom_site_type_symbol 
_atom_site_fract_x 
_atom_site_fract_y 
_atom_site_fract_z 
_atom_site_charge 
C1          C  0.66602805  0.29259880  0.08613475     0.03500
C2          C  0.67778777  0.29183695  0.06243157    -0.12600
C3          C  0.70044689  0.28245634  0.06784201     0.01000
C4          C  0.71131653  0.27385282  0.09725446    -0.11100
C5          C  0.69914274  0.27432810  0.12068393     0.03500
C6          C  0.67669703  0.28383597  0.11516851    -0.10600
H7          H  0.66967117  0.29869866  0.04012059     0.09100
H8          H  0.72951257  0.26692044  0.10222277     0.06600
H9          H  0.66761440  0.28446126  0.13351719     0.06500
C10         C  0.81044647  0.30764812  0.87753144     0.03500
C11         C  0.80048417  0.30385473  0.90179838    -0.12600
C12         C  0.77798894  0.29410791  0.89299467     0.01000
C13         C  0.76591379  0.28786190  0.85999209    -0.11100
C14         C  0.77528589  0.29171488  0.83519962     0.03500
C15         C  0.79720075  0.30180109  0.84395848    -0.10600
H16         H  0.81022183  0.30849984  0.92756717     0.09100
H17         H  0.74940259  0.27992414  0.85374169     0.06600
H18         H  0.80458717  0.30482389  0.82500275     0.06500
C19         C  0.67780773  0.21263973  0.58834556     0.03500
C20         C  0.68541433  0.22190530  0.61587062    -0.12600
C21         C  0.70705826  0.23194989  0.62204105     0.01000
C22         C  0.72119831  0.23249031  0.60058120    -0.11100
C23         C  0.71350158  0.22320795  0.57306686     0.03500
C24         C  0.69195321  0.21330960  0.56723902    -0.10600
H25         H  0.67433935  0.22136987  0.63218596     0.09100
H26         H  0.73807421  0.24010376  0.60521853     0.06600
H27         H  0.68585820  0.20618396  0.54581180     0.06500
C28         C  0.82492924  0.20142588  0.38288900     0.03500
C29         C  0.81331365  0.20388768  0.40614341    -0.12600
C30         C  0.78962950  0.21300936  0.39713164     0.01000
C31         C  0.77863194  0.22019509  0.36536791    -0.11100
C32         C  0.79025057  0.21785937  0.34183522     0.03500
C33         C  0.81292480  0.20812190  0.35037432    -0.10600
H34         H  0.82276521  0.19871453  0.43133336     0.09100
H35         H  0.76084793  0.22754303  0.35885582     0.06600
H36         H  0.82176323  0.20603079  0.33225478     0.06500
N37         N  0.97370010  0.94188720  0.57390684    -0.26900
N38         N  0.00002146  0.93773909  0.57815202    -0.34700
C39         C  0.01523068  0.94845576  0.57540529     0.01400
C40         C  0.99777867  0.95995193  0.56941831     0.07500
C41         C  0.97140668  0.95536858  0.56818806    -0.05600
H42         H  0.03731599  0.94790384  0.57736040     0.08100
H43         H  0.95160167  0.96124602  0.56243014     0.09300
Cu44       Cu  0.01343656  0.91762425  0.58544176     0.44200
Cu45       Cu  0.94222894  0.92891518  0.57587763     0.42000
Cu46       Cu  0.96083207  0.89285113  0.58522799     0.43900
N47         N  0.02089974  0.89689738  0.58795882    -0.34300
N48         N  0.00171832  0.88777352  0.58787775    -0.28500
C49         C  0.01321592  0.87529999  0.58964247    -0.04600
C50         C  0.04071510  0.87666526  0.59032559     0.07600
C51         C  0.04499681  0.89049752  0.58958519     0.01400
H52         H  0.00234515  0.86592765  0.59028478     0.09000
H53         H  0.06432027  0.89554472  0.59046792     0.08100
N54         N  0.92161283  0.90074764  0.58224637    -0.35700
N55         N  0.91509845  0.91384376  0.57933482    -0.27900
C56         C  0.88766010  0.91548139  0.57644897    -0.03100
C57         C  0.87633930  0.90282797  0.57770814     0.05500
C58         C  0.89836224  0.89371859  0.58103155     0.03600
H59         H  0.87610735  0.92511263  0.57172271     0.08700
H60         H  0.89709856  0.88276162  0.58114887     0.07500
N61         N  0.55382282  0.94058092  0.46733691    -0.26900
N62         N  0.52612218  0.93732040  0.45955797    -0.34700
C63         C  0.51141937  0.94864188  0.45993327     0.01400
C64         C  0.53110540  0.95946738  0.46915370     0.07500
C65         C  0.55763768  0.95398974  0.47310151    -0.05600
H66         H  0.48824032  0.94893771  0.45432014     0.08100
H67         H  0.57840434  0.95930041  0.48038180     0.09300
Cu68       Cu  0.51083680  0.91742909  0.45139009     0.44200
Cu69       Cu  0.58546040  0.92660965  0.47145824     0.42000
Cu70       Cu  0.56810534  0.89119867  0.47001816     0.43900
N71         N  0.50275829  0.89666029  0.44798840    -0.34300
N72         N  0.52351494  0.88725913  0.45511870    -0.28500
C73         C  0.51091784  0.87493446  0.45066449    -0.04600
C74         C  0.48075267  0.87662095  0.43992203     0.07600
C75         C  0.47642830  0.89051888  0.43891418     0.01400
H76         H  0.52309164  0.86547181  0.45582714     0.09000
H77         H  0.45565936  0.89578103  0.43213191     0.08100
N78         N  0.60951089  0.89824224  0.47834817    -0.35700
N79         N  0.61515454  0.91129969  0.47778834    -0.27900
C80         C  0.64332139  0.91287361  0.48337534    -0.03100
C81         C  0.65612441  0.90019250  0.48731108     0.05500
C82         C  0.63421968  0.89111066  0.48452839     0.03600
H83         H  0.65398081  0.92258604  0.48547490     0.08700
H84         H  0.63615736  0.88018204  0.48703363     0.07500
N85         N  0.47998950  0.12888655  0.49920931    -0.26900
N86         N  0.49944842  0.12017643  0.49818417    -0.34700
C87         C  0.52449987  0.12682487  0.50404427     0.01400
C88         C  0.52052936  0.14038557  0.50878422     0.07500
C89         C  0.49222602  0.14132781  0.50597011    -0.05600
H90         H  0.54449196  0.12206345  0.50597675     0.08100
H91         H  0.48154388  0.15033733  0.50924241     0.09300
Cu92       Cu  0.49206504  0.09957244  0.49131026     0.44200
Cu93       Cu  0.43809378  0.12337632  0.49217221     0.42000
Cu94       Cu  0.41935400  0.08775931  0.47531267     0.43900
N95         N  0.47999255  0.07939666  0.48548669    -0.34300
N96         N  0.45333312  0.07508189  0.47955109    -0.28500
C97         C  0.45265384  0.06148793  0.47741212    -0.04600
C98         C  0.48035693  0.05704980  0.48272429     0.07600
C99         C  0.49705081  0.06866648  0.48730921     0.01400
H100        H  0.43349702  0.05529147  0.47264202     0.09000
H101        H  0.51984459  0.06928829  0.49155316     0.08100
N102        N  0.38997920  0.10242435  0.47463808    -0.35700
N103        N  0.39694202  0.11537725  0.48152481    -0.27900
C104        C  0.37356197  0.12201030  0.48113630    -0.03100
C105        C  0.35067655  0.11280833  0.47307924     0.05500
C106        C  0.36197143  0.10047258  0.46948275     0.03600
H107        H  0.37349554  0.13266040  0.48712339     0.08700
H108        H  0.35112460  0.09068906  0.46503125     0.07500
N109        N  0.03895458  0.12546045  0.48392249    -0.26900
N110        N  0.02117602  0.11690325  0.48899450    -0.34700
C111        C  0.99579223  0.12338487  0.48272243     0.01400
C112        C  0.99777662  0.13664603  0.47344135     0.07500
C113        C  0.02523995  0.13757096  0.47399581    -0.05600
H114        H  0.97696096  0.11869598  0.48394406     0.08100
H115        H  0.03452180  0.14636874  0.46751821     0.09300
Cu116      Cu  0.03089135  0.09657788  0.50203071     0.44200
Cu117      Cu  0.08094425  0.12045609  0.49050780     0.42000
Cu118      Cu  0.10037819  0.08494499  0.50826319     0.43900
N119        N  0.04465763  0.07648074  0.51164765    -0.34300
N120        N  0.07006918  0.07219974  0.51338420    -0.28500
C121        C  0.07286967  0.05879717  0.52012089    -0.04600
C122        C  0.04826672  0.05445214  0.52343454     0.07600
C123        C  0.03060510  0.06590570  0.51731379     0.01400
H124        H  0.09161807  0.05269745  0.52280391     0.09000
H125        H  0.00936681  0.06654993  0.51759620     0.08100
N126        N  0.12857379  0.09954361  0.50530601    -0.35700
N127        N  0.12172663  0.11255951  0.49934836    -0.27900
C128        C  0.14475792  0.11922846  0.49897451    -0.03100
C129        C  0.16734030  0.10996770  0.50530213     0.05500
C130        C  0.15604146  0.09756292  0.50864853     0.03600
H131        H  0.14482972  0.12997981  0.49385818     0.08700
H132        H  0.16662097  0.08772947  0.51222336     0.07500
C133        C  0.19516064  0.70381044  0.12459451     0.03500
C134        C  0.20353276  0.70611153  0.09825721    -0.12600
C135        C  0.22411249  0.71631705  0.10222107     0.01000
C136        C  0.23567959  0.72454435  0.13220713    -0.11100
C137        C  0.22798344  0.72212192  0.15921163     0.03500
C138        C  0.20750418  0.71177879  0.15501487    -0.10600
H139        H  0.19447233  0.69980560  0.07497724     0.09100
H140        H  0.25061936  0.73276484  0.13438471     0.06600
H141        H  0.20099841  0.70995339  0.17538285     0.06500
C142        C  0.32944095  0.70616995  0.90327448     0.03500
C143        C  0.32000751  0.71480487  0.87410559    -0.12600
C144        C  0.29936122  0.72521376  0.86879347     0.01000
C145        C  0.28885967  0.72715618  0.89347945    -0.11100
C146        C  0.29782518  0.71837240  0.92234528     0.03500
C147        C  0.31830590  0.70795920  0.92731484    -0.10600
H148        H  0.32823269  0.71323515  0.85518131     0.09100
H149        H  0.27347026  0.73536324  0.89007677     0.06600
H150        H  0.32520175  0.70111801  0.94954729     0.06500
C151        C  0.32893330  0.80376158  0.40086776     0.03500
C152        C  0.31794718  0.80224431  0.42517593    -0.12600
C153        C  0.29671536  0.79223314  0.42043427     0.01000
C154        C  0.28611021  0.78385615  0.39079132    -0.11100
C155        C  0.29696608  0.78526272  0.36630310     0.03500
C156        C  0.31839019  0.79526466  0.37142150    -0.10600
H157        H  0.32608303  0.80881862  0.44792884     0.09100
H158        H  0.26911674  0.77634583  0.38647538     0.06600
H159        H  0.32711961  0.79630314  0.35281237     0.06500
C160        C  0.18940077  0.80330640  0.61973860     0.03500
C161        C  0.20054231  0.79458179  0.64889219    -0.12600
C162        C  0.22301424  0.78509793  0.65409902     0.01000
C163        C  0.23300561  0.78392825  0.62878220    -0.11100
C164        C  0.22155582  0.79244624  0.59924152     0.03500
C165        C  0.19974205  0.80214015  0.59476809    -0.10600
H166        H  0.19237386  0.79546126  0.66805797     0.09100
H167        H  0.25008814  0.77654241  0.63233601     0.06600
H168        H  0.19128745  0.80893317  0.57230696     0.06500
N169        N  0.00152980  0.62217954  0.09081720    -0.26900
N170        N  0.02324722  0.61338066  0.09725897    -0.34700
C171        C  0.04816098  0.62015838  0.10318280     0.01400
C172        C  0.04204507  0.63391236  0.10058375     0.07500
C173        C  0.01216332  0.63482165  0.09244769    -0.05600
H174        H  0.06905386  0.61539623  0.10816339     0.08100
H175        H  0.99863516  0.64389789  0.08633009     0.09300
Cu176      Cu  0.01809738  0.59254715  0.09462800     0.44200
Cu177      Cu  0.95784763  0.61663938  0.07771712     0.42000
Cu178      Cu  0.94244848  0.58092766  0.06217680     0.43900
N179        N  0.00614250  0.57233150  0.08615864    -0.34300
N180        N  0.97829120  0.56814008  0.07395578    -0.28500
C181        C  0.97764898  0.55456121  0.07136887    -0.04600
C182        C  0.00653700  0.54994509  0.08281663     0.07600
C183        C  0.02400086  0.56151794  0.09149035     0.01400
H184        H  0.95761369  0.54848375  0.06201505     0.09000
H185        H  0.04784695  0.56206604  0.10065068     0.08100
N186        N  0.91057067  0.59505577  0.05750441    -0.35700
N187        N  0.91615557  0.60813595  0.06393978    -0.27900
C188        C  0.89127304  0.61433618  0.06078157    -0.03100
C189        C  0.86913099  0.60463857  0.05224315     0.05500
C190        C  0.88208353  0.59258130  0.04994735     0.03600
H191        H  0.88949562  0.62506835  0.06472796     0.08700
H192        H  0.87179208  0.58265762  0.04416718     0.07500
N193        N  0.60688375  0.60721174  0.99334676    -0.26900
N194        N  0.61340449  0.59414348  0.99872136    -0.34700
C195        C  0.64197476  0.59225883  0.00578914     0.01400
C196        C  0.65424315  0.60469357  0.00459289     0.07500
C197        C  0.63135854  0.61399886  0.99708028    -0.05600
H198        H  0.65306552  0.58249365  0.01135214     0.08100
H199        H  0.63248961  0.62489990  0.99488332     0.09300
Cu200      Cu  0.58335062  0.57930223  0.99635542     0.44200
Cu201      Cu  0.56449407  0.61477864  0.98081624     0.42000
Cu202      Cu  0.50913947  0.58981875  0.97772054     0.43900
N203        N  0.55011678  0.56580564  0.99156427    -0.34300
N204        N  0.52293444  0.56960472  0.98499660    -0.28500
C205        C  0.50656081  0.55845090  0.98207887    -0.04600
C206        C  0.52413317  0.54706497  0.98636250     0.07600
C207        C  0.55173844  0.55216718  0.99292140     0.01400
H208        H  0.48341754  0.55861361  0.97665304     0.09000
H209        H  0.57136805  0.54636750  0.99738876     0.08100
N210        N  0.50050405  0.61047528  0.96736738    -0.35700
N211        N  0.52025700  0.61941258  0.96791301    -0.27900
C212        C  0.50704355  0.63168125  0.95883820    -0.03100
C213        C  0.47755826  0.63040873  0.95198213     0.05500
C214        C  0.47433960  0.61686694  0.95812950     0.03600
H215        H  0.51814097  0.64088524  0.95752272     0.08700
H216        H  0.45430957  0.61198219  0.95566384     0.07500
N217        N  0.02150224  0.38543349  0.99250010    -0.26900
N218        N  0.00389786  0.39417108  0.99737286    -0.34700
C219        C  0.97640831  0.38875623  0.98471979     0.01400
C220        C  0.97696094  0.37603852  0.97148746     0.07500
C221        C  0.00586060  0.37421827  0.97706092    -0.05600
H222        H  0.95755279  0.39363967  0.98547327     0.08100
H223        H  0.01481923  0.36544104  0.97009491     0.09300
Cu224      Cu  0.01825166  0.41288431  0.02185420     0.44200
Cu225      Cu  0.06592242  0.38882421  0.00636182     0.42000
Cu226      Cu  0.09787338  0.41867516  0.05621423     0.43900
N227        N  0.03986926  0.43049043  0.04792047    -0.34300
N228        N  0.06892108  0.43240691  0.06052177    -0.28500
C229        C  0.07584589  0.44502216  0.07346830    -0.04600
C230        C  0.05004719  0.45137140  0.06924724     0.07600
C231        C  0.02756847  0.44189987  0.05272503     0.01400
H232        H  0.09788171  0.44944987  0.08382851     0.09000
H233        H  0.00387144  0.44343794  0.04326159     0.08100
N234        N  0.12220995  0.40486942  0.04381990    -0.35700
N235        N  0.11019042  0.39403769  0.02431193    -0.27900
C236        C  0.13096551  0.38771123  0.01835739    -0.03100
C237        C  0.15742383  0.39481259  0.03553098     0.05500
C238        C  0.15104085  0.40568455  0.05116715     0.03600
H239        H  0.12698203  0.37876589  0.00227188     0.08700
H240        H  0.16591050  0.41387119  0.06557681     0.07500
N241        N  0.47759689  0.37876402  0.04172703    -0.26900
N242        N  0.49601826  0.38688496  0.03652433    -0.34700
C243        C  0.51979508  0.37960430  0.04004494     0.01400
C244        C  0.51600790  0.36628015  0.04752043     0.07500
C245        C  0.48923734  0.36616040  0.04883468    -0.05600
H246        H  0.53814622  0.38363005  0.03656709     0.08100
H247        H  0.47843592  0.35743885  0.05327562     0.09300
Cu248      Cu  0.48741887  0.40735020  0.02282933     0.44200
Cu249      Cu  0.43610024  0.38462829  0.03594440     0.42000
Cu250      Cu  0.41413633  0.41889983  0.00643901     0.43900
N251        N  0.47223883  0.42720291  0.00814358    -0.34300
N252        N  0.44542248  0.43132233  0.00225613    -0.28500
C253        C  0.44239472  0.44459676  0.99396390    -0.04600
C254        C  0.46837501  0.44910585  0.99412318     0.07600
C255        C  0.48696439  0.43780562  0.00367715     0.01400
H256        H  0.42275505  0.45057553  0.98852817     0.09000
H257        H  0.50978160  0.43740169  0.00793388     0.08100
N258        N  0.38635458  0.40503735  0.01313209    -0.35700
N259        N  0.39451195  0.39251469  0.02469992    -0.27900
C260        C  0.37206377  0.38640171  0.02784290    -0.03100
C261        C  0.34837707  0.39545592  0.01712619     0.05500
C262        C  0.35848027  0.40720170  0.00834756     0.03600
H263        H  0.37328477  0.37626759  0.03818526     0.08700
H264        H  0.34663855  0.41674525  0.99979228     0.07500
C265        C  0.23935164  0.39043723  0.06031715    -0.22100
C266        C  0.23837735  0.39158245  0.02730799     0.09900
C267        C  0.21051475  0.39273420  0.99686621     0.10300
C268        C  0.18426119  0.39305973  0.00029618    -0.17000
C269        C  0.18534986  0.39255864  0.03346636    -0.27400
C270        C  0.21318337  0.39096308  0.06384571     0.18600
C271        C  0.26686652  0.39242095  0.02546666     0.12600
C272        C  0.20855278  0.39418928  0.96096928    -0.11800
H273        H  0.16285927  0.39431329  0.97710565     0.12900
C274        C  0.21613082  0.38964684  0.10025682    -0.22600
H275        H  0.26078323  0.38940228  0.08358536     0.08500
C276        C  0.28416754  0.40435451  0.03529772     0.04900
C277        C  0.31049110  0.40492911  0.03213682    -0.19800
C278        C  0.32001692  0.39389917  0.01918839    -0.12100
C279        C  0.30234975  0.38194995  0.00893641     0.13600
C280        C  0.27628875  0.38132250  0.01282962    -0.22500
C281        C  0.27465411  0.41657367  0.04866942    -0.05600
H282        H  0.32389028  0.41406847  0.04016394     0.15100
C283        C  0.30907683  0.36993027  0.99216473    -0.15800
H284        H  0.26273204  0.37221653  0.00504306     0.09400
H285        H  0.22950767  0.39823485  0.11669155     0.07300
H286        H  0.22774514  0.37998682  0.11234278     0.08500
H287        H  0.19433599  0.38953258  0.10050456     0.07500
H288        H  0.21805783  0.38505264  0.95481497     0.02400
H289        H  0.22120048  0.40329181  0.96028210     0.02900
H290        H  0.18507928  0.39535159  0.94015406     0.06400
H291        H  0.29037106  0.42518344  0.05429366     0.05400
H292        H  0.27391157  0.41397455  0.07337159    -0.00400
H293        H  0.25217441  0.41998732  0.02867504     0.01100
H294        H  0.31452603  0.36098003  0.00985742     0.04700
H295        H  0.32757776  0.37172310  0.98579940     0.06700
H296        H  0.28910784  0.36753833  0.96695137     0.07600
C297        C  0.48149670  0.51353192  0.95928526    -0.22100
C298        C  0.50118711  0.50484822  0.98579659     0.09900
C299        C  0.52883083  0.50988392  0.01148296     0.10300
C300        C  0.53574242  0.52365743  0.01071281    -0.17000
C301        C  0.51575985  0.53251483  0.98462528    -0.27400
C302        C  0.48861385  0.52722035  0.95786258     0.18600
C303        C  0.49191643  0.49063495  0.98686189     0.12600
C304        C  0.55083024  0.50072879  0.03985389    -0.11800
H305        H  0.55669717  0.52758533  0.03096534     0.12900
C306        C  0.46718274  0.53536830  0.92646223    -0.22600
H307        H  0.46049676  0.50953536  0.93925149     0.08500
C308        C  0.47470413  0.48731210  0.00381100     0.04900
C309        C  0.46697338  0.47372322  0.00512132    -0.19800
C310        C  0.47566231  0.46333622  0.98941200    -0.12100
C311        C  0.49146873  0.46683310  0.97059142     0.13600
C312        C  0.49997821  0.48040341  0.97028954    -0.22500
C313        C  0.46474037  0.49812646  0.02079360    -0.05600
H314        H  0.45454785  0.47117323  0.01914488     0.15100
C315        C  0.49840620  0.45677933  0.94902985    -0.15800
H316        H  0.51247332  0.48307785  0.95641085     0.09400
H317        H  0.44570891  0.53661214  0.92730086     0.07300
H318        H  0.46289973  0.52989170  0.90203063     0.08500
H319        H  0.47577975  0.54547758  0.92457195     0.07500
H320        H  0.55747259  0.49232780  0.02777225     0.02400
H321        H  0.54049536  0.49640418  0.05548388     0.02900
H322        H  0.57133434  0.50627425  0.05801335     0.06400
H323        H  0.45148411  0.49381944  0.03301759     0.05400
H324        H  0.45059591  0.50569570  0.00074136    -0.00400
H325        H  0.48452372  0.50331401  0.04157399     0.01100
H326        H  0.48964213  0.46068244  0.92174546     0.04700
H327        H  0.48793527  0.44675337  0.94708014     0.06700
H328        H  0.52295708  0.45544523  0.96047702     0.07600
C329        C  0.04881076  0.51632896  0.10867151    -0.22100
C330        C  0.03089764  0.50844002  0.07934988     0.09900
C331        C  0.00520806  0.51413885  0.05151399     0.10300
C332        C  0.99811018  0.52773614  0.05347320    -0.17000
C333        C  0.01580769  0.53571018  0.08290178    -0.27400
C334        C  0.04127623  0.52983870  0.11124563     0.18600
C335        C  0.03813055  0.49394300  0.07917950     0.12600
C336        C  0.98510508  0.50580232  0.01998039    -0.11800
H337        H  0.97855823  0.53217384  0.03183605     0.12900
C338        C  0.05996010  0.53706094  0.14542136    -0.22600
H339        H  0.06816938  0.51174170  0.13028127     0.08500
C340        C  0.05566103  0.48939508  0.06368343     0.04900
C341        C  0.05969590  0.47541310  0.06160185    -0.19800
C342        C  0.04665555  0.46592214  0.07478193    -0.12100
C343        C  0.03028872  0.47057743  0.09187044     0.13600
C344        C  0.02600479  0.48455812  0.09350892    -0.22500
C345        C  0.06980655  0.49928557  0.04910651    -0.05600
H346        H  0.07247497  0.47186314  0.04881027     0.15100
C347        C  0.01780033  0.46122861  0.10956545    -0.15800
H348        H  0.01295583  0.48818524  0.10590874     0.09400
H349        H  0.08282151  0.53868517  0.14867310     0.07300
H350        H  0.06148221  0.53071455  0.16759043     0.08500
H351        H  0.05050756  0.54692243  0.14753403     0.07500
H352        H  0.97620160  0.49703602  0.02843995     0.02400
H353        H  0.99782229  0.50199327  0.00660303     0.02900
H354        H  0.96585465  0.51182369  0.00065790     0.06400
H355        H  0.08281781  0.49400962  0.03787458     0.05400
H356        H  0.08520072  0.50608069  0.07037374    -0.00400
H357        H  0.05230842  0.50551183  0.02800635     0.01100
H358        H  0.02674801  0.46417022  0.13756586     0.04700
H359        H  0.02381690  0.45045348  0.10917604     0.06700
H360        H  0.99308234  0.46213825  0.09650791     0.07600
C361        C  0.80101219  0.61441370  0.06341349    -0.22100
C362        C  0.77782281  0.60903226  0.03261988     0.09900
C363        C  0.78484215  0.60247931  0.00818065     0.10300
C364        C  0.81481615  0.60135756  0.01529508    -0.17000
C365        C  0.83807420  0.60652198  0.04636046    -0.27400
C366        C  0.83108662  0.61294354  0.07107197     0.18600
C367        C  0.74671176  0.60913732  0.02793144     0.12600
C368        C  0.76083933  0.59628938  0.97505134    -0.11800
H369        H  0.82018145  0.59633318  0.99653817     0.12900
C370        C  0.85454976  0.61755369  0.10669294    -0.22600
H371        H  0.79566718  0.61927864  0.08237966     0.08500
C372        C  0.73833593  0.60060497  0.04828126     0.04900
C373        C  0.70818837  0.59983639  0.04055683    -0.19800
C374        C  0.68582093  0.60709873  0.01238946    -0.12100
C375        C  0.69429096  0.61568117  0.99194718     0.13600
C376        C  0.72470387  0.61686855  0.00072508    -0.22500
C377        C  0.76097053  0.59185108  0.07729024    -0.05600
H378        H  0.70194417  0.59326310  0.05630365     0.15100
C379        C  0.67217565  0.62294105  0.95920562    -0.15800
H380        H  0.73114110  0.62333719  0.98494895     0.09400
H381        H  0.85057505  0.61261644  0.12739540     0.07300
H382        H  0.85310460  0.62872372  0.10882472     0.08500
H383        H  0.87757109  0.61487243  0.11225882     0.07500
H384        H  0.74539782  0.60430349  0.95811025     0.02400
H385        H  0.74808982  0.58869024  0.98176725     0.02900
H386        H  0.77035321  0.59109493  0.95961240     0.06400
H387        H  0.75039508  0.58535803  0.08953397     0.05400
H388        H  0.77778847  0.59830851  0.09821608    -0.00400
H389        H  0.77234855  0.58510315  0.06658758     0.01100
H390        H  0.67513224  0.63407607  0.96311278     0.04700
H391        H  0.64867819  0.62037188  0.95139440     0.06700
H392        H  0.67624984  0.62005002  0.93684714     0.07600
C393        C  0.27149190  0.79466762  0.55554589    -0.22100
C394        C  0.25235206  0.78975480  0.52195271     0.09900
C395        C  0.22333925  0.78539978  0.51397754     0.10300
C396        C  0.21385685  0.78629898  0.53981008    -0.17000
C397        C  0.23286476  0.79139005  0.57330964    -0.27400
C398        C  0.26205448  0.79558589  0.58138073     0.18600
C399        C  0.26259029  0.79018816  0.49492749     0.12600
C400        C  0.20239717  0.77997463  0.47815741    -0.11800
H401        H  0.19151558  0.78308342  0.53387631     0.12900
C402        C  0.28283942  0.80149074  0.61671228    -0.22600
H403        H  0.29364634  0.79808931  0.56122814     0.08500
C404        C  0.25910028  0.80206073  0.47499784     0.04900
C405        C  0.27012207  0.80233359  0.45056708    -0.19800
C406        C  0.28472184  0.79103682  0.44580624    -0.12100
C407        C  0.28846044  0.77915426  0.46604559     0.13600
C408        C  0.27713333  0.77885958  0.49030705    -0.22500
C409        C  0.24398446  0.81447348  0.47980606    -0.05600
H410        H  0.26749272  0.81144003  0.43516983     0.15100
C411        C  0.30550282  0.76704362  0.46335303    -0.15800
H412        H  0.28003053  0.76986512  0.50616631     0.09400
H413        H  0.30435358  0.80473082  0.61800255     0.07300
H414        H  0.28790188  0.79382619  0.63768575     0.08500
H415        H  0.27227194  0.81050097  0.62184662     0.07500
H416        H  0.21241213  0.77087153  0.47257804     0.02400
H417        H  0.19831684  0.78782978  0.45785208     0.02900
H418        H  0.18052172  0.77703287  0.47631406     0.06400
H419        H  0.24309448  0.82288404  0.46208909     0.05400
H420        H  0.25641895  0.81810727  0.50730108    -0.00400
H421        H  0.22074933  0.81197190  0.47399165     0.01100
H422        H  0.30770399  0.75899311  0.48255519     0.04700
H423        H  0.32831473  0.77018713  0.46875096     0.06700
H424        H  0.29380322  0.76254860  0.43675339     0.07600
C425        C  0.36084787  0.67132912  0.90187732    -0.22100
C426        C  0.39160573  0.67380036  0.92092507     0.09900
C427        C  0.40183095  0.68701904  0.93313508     0.10300
C428        C  0.38098105  0.69744348  0.92669183    -0.17000
C429        C  0.35023827  0.69492835  0.90810678    -0.27400
C430        C  0.33996609  0.68176268  0.89517546     0.18600
C431        C  0.41279224  0.66237323  0.92831975     0.12600
C432        C  0.43471207  0.69005478  0.95331278    -0.11800
H433        H  0.38864266  0.70758598  0.93638950     0.12900
C434        C  0.30725213  0.67840201  0.87428208    -0.22600
H435        H  0.35310870  0.66117721  0.89233110     0.08500
C436        C  0.41905861  0.65320067  0.95614150     0.04900
C437        C  0.43986878  0.64272438  0.96272052    -0.19800
C438        C  0.45478293  0.64128826  0.94233388    -0.12100
C439        C  0.44793110  0.65036479  0.91391760     0.13600
C440        C  0.42716765  0.66083796  0.90750031    -0.22500
C441        C  0.40422227  0.65466465  0.97927515    -0.05600
H442        H  0.44503115  0.63578396  0.98441695     0.15100
C443        C  0.46106894  0.64910538  0.88897645    -0.15800
H444        H  0.42199086  0.66784030  0.88590235     0.09400
H445        H  0.30128512  0.67043821  0.88822721     0.07300
H446        H  0.30273709  0.67451546  0.84806509     0.08500
H447        H  0.29244175  0.68726287  0.87011680     0.07500
H448        H  0.44567622  0.68785412  0.93673081     0.02400
H449        H  0.44503920  0.68367499  0.97739809     0.02900
H450        H  0.43886001  0.70086980  0.96132435     0.06400
H451        H  0.41199825  0.64679094  0.00022280     0.05400
H452        H  0.37965793  0.65365846  0.96326255    -0.00400
H453        H  0.40942811  0.66477920  0.99203991     0.01100
H454        H  0.44272853  0.64829677  0.86165224     0.04700
H455        H  0.47536788  0.64003098  0.89389448     0.06700
H456        H  0.47448828  0.65827659  0.89092875     0.07600
C457        C  0.24918139  0.74250015  0.78187805    -0.22100
C458        C  0.26998907  0.75020098  0.77653583     0.09900
C459        C  0.30050624  0.74964881  0.80144189     0.10300
C460        C  0.30944182  0.74148850  0.83148124    -0.17000
C461        C  0.28855844  0.73389337  0.83707852    -0.27400
C462        C  0.25809404  0.73422731  0.81167061     0.18600
C463        C  0.25903052  0.75898340  0.74497458     0.12600
C464        C  0.32365911  0.75744583  0.79602253    -0.11800
H465        H  0.33282639  0.74102868  0.85076039     0.12900
C466        C  0.23506609  0.72552486  0.81508689    -0.22600
H467        H  0.22581627  0.74297582  0.76253819     0.08500
C468        C  0.24861612  0.75352512  0.71099299     0.04900
C469        C  0.23699085  0.76229452  0.68185622    -0.19800
C470        C  0.23627806  0.77641830  0.68600975    -0.12100
C471        C  0.24826422  0.78187836  0.72035445     0.13600
C472        C  0.25857621  0.77304696  0.74923813    -0.22500
C473        C  0.25021440  0.73850650  0.70553256    -0.05600
H474        H  0.22824898  0.75810349  0.65565446     0.15100
C475        C  0.25188745  0.79689236  0.72790785    -0.15800
H476        H  0.26693457  0.77718709  0.77545907     0.09400
H477        H  0.21289930  0.72632110  0.79148081     0.07300
H478        H  0.23217997  0.72876261  0.83796992     0.08500
H479        H  0.24212617  0.71471829  0.81830647     0.07500
H480        H  0.31927610  0.76850147  0.79536531     0.02400
H481        H  0.32296630  0.75437753  0.77083033     0.02900
H482        H  0.34655767  0.75549998  0.81748940     0.06400
H483        H  0.24201699  0.73602100  0.67736336     0.05400
H484        H  0.23630299  0.73287551  0.71492750    -0.00400
H485        H  0.27373419  0.73499163  0.72028855     0.01100
H486        H  0.23734237  0.80007870  0.73952661     0.04700
H487        H  0.24666833  0.80319757  0.70441941     0.06700
H488        H  0.27549204  0.79905081  0.74698268     0.07600
C489        C  0.15672376  0.67291411  0.13810570    -0.22100
C490        C  0.12766526  0.67465385  0.11077863     0.09900
C491        C  0.12102551  0.68572004  0.08745838     0.10300
C492        C  0.14369170  0.69496277  0.09233367    -0.17000
C493        C  0.17278343  0.69331768  0.11989545    -0.27400
C494        C  0.17954153  0.68200464  0.14271873     0.18600
C495        C  0.10479271  0.66450374  0.10665590     0.12600
C496        C  0.09006450  0.68776426  0.05758909    -0.11800
H497        H  0.13864725  0.70361846  0.07483935     0.12900
C498        C  0.21061137  0.67894100  0.17136861    -0.22600
H499        H  0.16173356  0.66424750  0.15557554     0.08500
C500        C  0.10102347  0.65261817  0.08692430     0.04900
C501        C  0.07996958  0.64296514  0.08495604    -0.19800
C502        C  0.06259548  0.64492291  0.10228430    -0.12100
C503        C  0.06649690  0.65687482  0.12215983     0.13600
C504        C  0.08756038  0.66654753  0.12398639    -0.22500
C505        C  0.11947862  0.65007987  0.06831298    -0.05600
H506        H  0.07710778  0.63379883  0.06985185     0.15100
C507        C  0.04977297  0.65921396  0.14292065    -0.15800
H508        H  0.09097186  0.67566993  0.13941591     0.09400
H509        H  0.21733942  0.66862942  0.16734854     0.07300
H510        H  0.21084865  0.67924439  0.19730205     0.08500
H511        H  0.22763025  0.68611697  0.17183267     0.07500
H512        H  0.07390167  0.68899610  0.06810751     0.02400
H513        H  0.08355594  0.67884815  0.03987480     0.02900
H514        H  0.08872519  0.69692794  0.04180907     0.06400
H515        H  0.11373377  0.64026301  0.05407483     0.05400
H516        H  0.14354463  0.64982296  0.08769221    -0.00400
H517        H  0.11558298  0.65829152  0.04892227     0.01100
H518        H  0.05749462  0.66853815  0.15913654     0.04700
H519        H  0.05329881  0.65050147  0.16088207     0.06700
H520        H  0.02561971  0.66050351  0.12495045     0.07600
C521        C  0.26438145  0.77078703  0.27390746    -0.22100
C522        C  0.26978106  0.75688456  0.28115424     0.09900
C523        C  0.28387822  0.75233748  0.31635887     0.10300
C524        C  0.29241815  0.76186566  0.34353815    -0.17000
C525        C  0.28687191  0.77579440  0.33629320    -0.27400
C526        C  0.27210654  0.78028010  0.30094748     0.18600
C527        C  0.25916991  0.74734924  0.25115845     0.12600
C528        C  0.28935247  0.73746175  0.32524408    -0.11800
H529        H  0.30352893  0.75844795  0.37064422     0.12900
C530        C  0.26293712  0.79483540  0.29062226    -0.22600
H531        H  0.25323909  0.77421418  0.24680353     0.08500
C532        C  0.22839846  0.74499440  0.22987082     0.04900
C533        C  0.21906714  0.73689236  0.19990307    -0.19800
C534        C  0.23974206  0.73076507  0.19108182    -0.12100
C535        C  0.27070801  0.73250896  0.21356921     0.13600
C536        C  0.27999713  0.74097718  0.24306378    -0.22500
C537        C  0.20539681  0.75078962  0.23915619    -0.05600
H538        H  0.19538602  0.73532498  0.18315304     0.15100
C539        C  0.29402651  0.72506074  0.20764055    -0.15800
H540        H  0.30361304  0.74268969  0.25985987     0.09400
H541        H  0.23843776  0.79533042  0.27326875     0.07300
H542        H  0.27450417  0.79887471  0.27606798     0.08500
H543        H  0.26798427  0.80151918  0.31334776     0.07500
H544        H  0.30448151  0.73329884  0.31546931     0.02400
H545        H  0.26782450  0.73189769  0.31287689     0.02900
H546        H  0.29987938  0.73566692  0.35405291     0.06400
H547        H  0.18244915  0.74749125  0.22042169     0.05400
H548        H  0.20586174  0.76203627  0.23862042    -0.00400
H549        H  0.21015096  0.74730356  0.26584175     0.01100
H550        H  0.29412852  0.72865922  0.18328609     0.04700
H551        H  0.28948369  0.71398973  0.20576572     0.06700
H552        H  0.31681802  0.72671018  0.22956859     0.07600
C553        C  0.24560786  0.71671290  0.96324140    -0.22100
C554        C  0.26458995  0.72109109  0.99747514     0.09900
C555        C  0.29406869  0.72509399  0.00648103     0.10300
C556        C  0.30404012  0.72443890  0.98106079    -0.17000
C557        C  0.28528494  0.71976826  0.94703393    -0.27400
C558        C  0.25563901  0.71588535  0.93790490     0.18600
C559        C  0.25399072  0.72027924  0.02422765     0.12600
C560        C  0.31501505  0.72998633  0.04291933    -0.11800
H561        H  0.32674340  0.72736110  0.98787659     0.12900
C562        C  0.23442959  0.71028173  0.90233310    -0.22600
H563        H  0.22313272  0.71345977  0.95661703     0.08500
C564        C  0.23353453  0.72973720  0.02548571     0.04900
C565        C  0.22426425  0.72832825  0.05148474    -0.19800
C566        C  0.23506458  0.71767969  0.07603393    -0.12100
C567        C  0.25570237  0.70828510  0.07482582     0.13600
C568        C  0.26466144  0.70964737  0.04871571    -0.22500
C569        C  0.22184121  0.74134843  0.99972644    -0.05600
H570        H  0.20843690  0.73548512  0.05258339     0.15100
C571        C  0.26907800  0.69682539  0.10090752    -0.15800
H572        H  0.28031081  0.70238895  0.04756351     0.09400
H573        H  0.21453154  0.71698480  0.88963577     0.07300
H574        H  0.22708772  0.69998990  0.90555179     0.08500
H575        H  0.24450931  0.70936211  0.88444179     0.07500
H576        H  0.31907166  0.72179026  0.06238622     0.02400
H577        H  0.30508892  0.73889424  0.04943150     0.02900
H578        H  0.33696104  0.73306063  0.04518545     0.06400
H579        H  0.20641317  0.74792747  0.00476346     0.05400
H580        H  0.20946123  0.73738308  0.97256221    -0.00400
H581        H  0.24077002  0.74767222  0.00186326     0.01100
H582        H  0.26300889  0.68697939  0.08683839     0.04700
H583        H  0.26154224  0.69667077  0.12131664     0.06700
H584        H  0.29378307  0.69779721  0.11454498     0.07600
C585        C  0.24686105  0.10682634  0.51858556    -0.22100
C586        C  0.24572577  0.11550832  0.49216448     0.09900
C587        C  0.21964100  0.12311318  0.47191474     0.10300
C588        C  0.19477585  0.12145385  0.47775399    -0.17000
C589        C  0.19549877  0.11245541  0.50357751    -0.27400
C590        C  0.22242817  0.10548105  0.52529930     0.18600
C591        C  0.27198241  0.11617041  0.48578514     0.12600
C592        C  0.21805795  0.13295511  0.44420866    -0.11800
H593        H  0.17435296  0.12691489  0.46126205     0.12900
C594        C  0.22685449  0.09699258  0.55659558    -0.22600
H595        H  0.26718467  0.10116293  0.53442271     0.08500
C596        C  0.29875638  0.12248145  0.50977531     0.04900
C597        C  0.32375367  0.12181996  0.50391392    -0.19800
C598        C  0.32250228  0.11501009  0.47464495    -0.12100
C599        C  0.29507739  0.10947150  0.44944571     0.13600
C600        C  0.27031400  0.10989367  0.45574230    -0.22500
C601        C  0.30100101  0.12983634  0.54157846    -0.05600
H602        H  0.34471084  0.12617346  0.52303633     0.15100
C603        C  0.29084117  0.10338774  0.41531089    -0.15800
H604        H  0.24952172  0.10524470  0.43710706     0.09400
H605        H  0.24723292  0.10044677  0.58012654     0.07300
H606        H  0.22980164  0.08618063  0.55166454     0.08500
H607        H  0.20825229  0.09789045  0.56321132     0.07500
H608        H  0.22086405  0.12748142  0.42342877     0.02400
H609        H  0.23600183  0.14064550  0.45634785     0.02900
H610        H  0.19627230  0.13836243  0.43151056     0.06400
H611        H  0.32333332  0.13451614  0.55700330     0.05400
H612        H  0.29728201  0.12267269  0.55909963    -0.00400
H613        H  0.28395726  0.13802983  0.53315578     0.01100
H614        H  0.28534939  0.09244999  0.41459182     0.04700
H615        H  0.31073475  0.10446748  0.41110657     0.06700
H616        H  0.27209222  0.10863740  0.39306379     0.07600
C617        C  0.50140146  0.99177303  0.49000977    -0.22100
C618        C  0.51197752  0.00153206  0.47489063     0.09900
C619        C  0.53011276  0.99760989  0.45964754     0.10300
C620        C  0.53637262  0.98379687  0.45867703    -0.17000
C621        C  0.52521049  0.97389205  0.47309128    -0.27400
C622        C  0.50842211  0.97802045  0.49018579     0.18600
C623        C  0.50412886  0.01585311  0.47604454     0.12600
C624        C  0.54254696  0.00799631  0.44420904    -0.11800
H625        H  0.54959520  0.98070064  0.44604449     0.12900
C626        C  0.49887453  0.96847442  0.51053708    -0.22600
H627        H  0.48814108  0.99497570  0.50253387     0.08500
C628        C  0.47702863  0.02135073  0.45023486     0.04900
C629        C  0.47001897  0.03487774  0.45315092    -0.19800
C630        C  0.48928829  0.04291207  0.48159527    -0.12100
C631        C  0.51613076  0.03722684  0.50801599     0.13600
C632        C  0.52343284  0.02380676  0.50446387    -0.22500
C633        C  0.45550952  0.01290460  0.41984194    -0.05600
H634        H  0.44938476  0.03922216  0.43309090     0.15100
C635        C  0.53676584  0.04460049  0.54119823    -0.15800
H636        H  0.54390835  0.01935579  0.52459066     0.09400
H637        H  0.47415734  0.96760648  0.49714506     0.07300
H638        H  0.50627503  0.97255300  0.53736842     0.08500
H639        H  0.50886464  0.95824018  0.51406570     0.07500
H640        H  0.55689008  0.01525633  0.46488576     0.02400
H641        H  0.52398025  0.01364400  0.42275219     0.02900
H642        H  0.55627144  0.00320855  0.43323011     0.06400
H643        H  0.43541265  0.01881426  0.40190853     0.05400
H644        H  0.44804267  0.00407899  0.42982706    -0.00400
H645        H  0.46661167  0.00919170  0.40448039     0.01100
H646        H  0.53983568  0.03845030  0.56433606     0.04700
H647        H  0.52816515  0.05460413  0.54392635     0.06700
H648        H  0.55884991  0.04602909  0.54202301     0.07600
C649        C  0.43247570  0.84505902  0.40596184    -0.22100
C650        C  0.41545858  0.84585729  0.42389970     0.09900
C651        C  0.41970787  0.85679789  0.44681357     0.10300
C652        C  0.44091786  0.86678651  0.45115298    -0.17000
C653        C  0.45833565  0.86591857  0.43361736    -0.27400
C654        C  0.45387476  0.85497095  0.41045607     0.18600
C655        C  0.39300873  0.83517774  0.41779071     0.12600
C656        C  0.40198716  0.85786378  0.46677158    -0.11800
H657        H  0.44429933  0.87520201  0.46878829     0.12900
C658        C  0.47058589  0.85396286  0.38927296    -0.22600
H659        H  0.42879945  0.83666361  0.38817628     0.08500
C660        C  0.36361522  0.83623137  0.39009550     0.04900
C661        C  0.34323120  0.82572451  0.38484713    -0.19800
C662        C  0.35171160  0.81420001  0.40662421    -0.12100
C663        C  0.38135815  0.81306179  0.43401288     0.13600
C664        C  0.40159139  0.82362988  0.43937388    -0.22500
C665        C  0.35387135  0.84844275  0.36616888    -0.05600
H666        H  0.32050460  0.82653879  0.36388367     0.15100
C667        C  0.39258976  0.80074406  0.45750251    -0.15800
H668        H  0.42433104  0.82280158  0.46031537     0.09400
H669        H  0.46718625  0.86337990  0.37360181     0.07300
H670        H  0.46272142  0.84527063  0.37078842     0.08500
H671        H  0.49473714  0.85241306  0.40684430     0.07500
H672        H  0.40634267  0.84882660  0.48397135     0.02400
H673        H  0.37777415  0.85840914  0.44811373     0.02900
H674        H  0.40806838  0.86705463  0.48356349     0.06400
H675        H  0.33013430  0.84768130  0.34589695     0.05400
H676        H  0.36780964  0.84935477  0.35254845    -0.00400
H677        H  0.35641835  0.85776815  0.38172012     0.01100
H678        H  0.41193129  0.79633460  0.45546510     0.04700
H679        H  0.37558248  0.79265904  0.45056588     0.06700
H680        H  0.39991611  0.80375803  0.48516372     0.07600
C681        C  0.00886035  0.99827616  0.57326264    -0.22100
C682        C  0.02061391  0.99999743  0.54976695     0.09900
C683        C  0.02566819  0.98857166  0.53359894     0.10300
C684        C  0.01794685  0.97564131  0.54049671    -0.17000
C685        C  0.00532357  0.97389103  0.56324430    -0.27400
C686        C  0.00129490  0.98534472  0.58042016     0.18600
C687        C  0.02751362  0.01389863  0.54258205     0.12600
C688        C  0.03919359  0.99006018  0.50911391    -0.11800
H689        H  0.02150851  0.96685705  0.52778398     0.12900
C690        C  0.99039771  0.98399855  0.60747557    -0.22600
H691        H  0.00563305  0.00712191  0.58605394     0.08500
C692        C  0.00563439  0.02206180  0.51612781     0.04900
C693        C  0.01306310  0.03527358  0.51067516    -0.19800
C694        C  0.04180946  0.04055346  0.53131181    -0.12100
C695        C  0.06346432  0.03242551  0.55859455     0.13600
C696        C  0.05612988  0.01911505  0.56334232    -0.22500
C697        C  0.97450687  0.01679123  0.49372469    -0.05600
H698        H  0.99639556  0.04148159  0.48995443     0.15100
C699        C  0.09389208  0.03754901  0.58452713    -0.15800
H700        H  0.07264873  0.01285428  0.58409398     0.09400
H701        H  0.96690500  0.98052388  0.59498195     0.07300
H702        H  0.99118720  0.99384632  0.62037765     0.08500
H703        H  0.00469673  0.97667815  0.62820483     0.07500
H704        H  0.06166852  0.99472210  0.52332701     0.02400
H705        H  0.02475732  0.99663591  0.48652010     0.02900
H706        H  0.04166955  0.98010353  0.49869675     0.06400
H707        H  0.96012651  0.02444871  0.47412193     0.05400
H708        H  0.96404119  0.01413865  0.51060802    -0.00400
H709        H  0.97538232  0.00760459  0.47935192     0.01100
H710        H  0.09730819  0.03578439  0.61167182     0.04700
H711        H  0.09685767  0.04855708  0.58229161     0.06700
H712        H  0.11137679  0.03194470  0.58104851     0.07600
C713        C  0.73404905  0.90352559  0.49681067    -0.22100
C714        C  0.75029713  0.89551648  0.52666168     0.09900
C715        C  0.73518773  0.88784777  0.54116374     0.10300
C716        C  0.70397260  0.88884639  0.52623844    -0.17000
C717        C  0.68776839  0.89742921  0.49738032    -0.27400
C718        C  0.70291435  0.90442553  0.48157825     0.18600
C719        C  0.78321005  0.89585665  0.54279396     0.12600
C720        C  0.75207999  0.87887372  0.57272173    -0.11800
H721        H  0.69236956  0.88343734  0.53822825     0.12900
C722        C  0.68709780  0.91273473  0.44840840    -0.22600
H723        H  0.74582849  0.90918873  0.48542045     0.08500
C724        C  0.79887555  0.88821546  0.52903312     0.04900
C725        C  0.82972114  0.89014151  0.54251541    -0.19800
C726        C  0.84509261  0.89969451  0.56904216    -0.12100
C727        C  0.82952518  0.90682860  0.58406147     0.13600
C728        C  0.79868297  0.90487735  0.57048894    -0.22500
C729        C  0.78287882  0.87829966  0.49957779    -0.05600
H730        H  0.84160317  0.88464182  0.53105326     0.15100
C731        C  0.84460983  0.91639927  0.61459682    -0.15800
H732        H  0.78647903  0.91062247  0.58115608     0.09400
H733        H  0.69395312  0.90916413  0.42874693     0.07300
H734        H  0.69335134  0.92357805  0.45424658     0.08500
H735        H  0.66247567  0.91183284  0.43603206     0.07500
H736        H  0.76778887  0.88507414  0.59527410     0.02400
H737        H  0.76489779  0.87112987  0.56657561     0.02900
H738        H  0.73682911  0.87351755  0.58064002     0.06400
H739        H  0.79851315  0.87308072  0.49204765     0.05400
H740        H  0.76588115  0.88370607  0.47606511    -0.00400
H741        H  0.77166035  0.87047319  0.50789102     0.01100
H742        H  0.83574421  0.92682830  0.60627419     0.04700
H743        H  0.86919876  0.91660448  0.62537357     0.06700
H744        H  0.83987874  0.91314805  0.63625998     0.07600
C745        C  0.15636866  0.83675552  0.62892051    -0.22100
C746        C  0.12574945  0.83417015  0.60907491     0.09900
C747        C  0.11610756  0.82146452  0.59258531     0.10300
C748        C  0.13740441  0.81154749  0.59653540    -0.17000
C749        C  0.16803293  0.81412432  0.61637555    -0.27400
C750        C  0.17770423  0.82689059  0.63272813     0.18600
C751        C  0.10413720  0.84506932  0.60484216     0.12600
C752        C  0.08337790  0.81844657  0.57059553    -0.11800
H753        H  0.13018202  0.80175099  0.58403090     0.12900
C754        C  0.21025539  0.83047089  0.65405279    -0.22600
H755        H  0.16365337  0.84657271  0.64130233     0.08500
C756        C  0.09141318  0.84623468  0.62775077     0.04900
C757        C  0.07032933  0.85650772  0.62188301    -0.19800
C758        C  0.06198914  0.86572800  0.59389581    -0.12100
C759        C  0.07469431  0.86447343  0.57081010     0.13600
C760        C  0.09582858  0.85422244  0.57684704    -0.22500
C761        C  0.10032741  0.83673277  0.65853312    -0.05600
H762        H  0.06068590  0.85750850  0.63960536     0.15100
C763        C  0.06572698  0.87331045  0.53876363    -0.15800
H764        H  0.10550441  0.85318406  0.55915329     0.09400
H765        H  0.21503443  0.83289647  0.68136724     0.07300
H766        H  0.21538039  0.83950237  0.64232235     0.08500
H767        H  0.22550360  0.82217959  0.65520890     0.07500
H768        H  0.07337663  0.82578661  0.54845400     0.02400
H769        H  0.07168750  0.81928755  0.58685825     0.02900
H770        H  0.07970055  0.80804950  0.55946840     0.06400
H771        H  0.08837786  0.83910373  0.67395497     0.05400
H772        H  0.12468599  0.83759678  0.67625203    -0.00400
H773        H  0.09504481  0.82611573  0.64916809     0.01100
H774        H  0.08531605  0.87924534  0.54142696     0.04700
H775        H  0.04734898  0.88043692  0.53418257     0.06700
H776        H  0.05787595  0.86680211  0.51508737     0.07600
C777        C  0.90425575  0.18822360  0.42657715    -0.22100
C778        C  0.89946664  0.17434658  0.41935492     0.09900
C779        C  0.87021640  0.16940829  0.39899456     0.10300
C780        C  0.84615498  0.17854658  0.38650338    -0.17000
C781        C  0.85095215  0.19243188  0.39396935    -0.27400
C782        C  0.88030690  0.19737034  0.41405351     0.18600
C783        C  0.92550475  0.16516056  0.43361047     0.12600
C784        C  0.86450488  0.15452524  0.39072795    -0.11800
H785        H  0.82352494  0.17485469  0.37133248     0.12900
C786        C  0.88712442  0.21217099  0.42296271    -0.22600
H787        H  0.92682957  0.19192083  0.44219503     0.08500
C788        C  0.94182947  0.16264808  0.41515621     0.04900
C789        C  0.96596655  0.15356844  0.42935042    -0.19800
C790        C  0.97420080  0.14709890  0.46171393    -0.12100
C791        C  0.95882446  0.15027364  0.48111554     0.13600
C792        C  0.93428236  0.15910627  0.46645770    -0.22500
C793        C  0.93355383  0.16947164  0.38042731    -0.05600
H794        H  0.97800398  0.15125482  0.41473044     0.15100
C795        C  0.96830865  0.14502955  0.51777923    -0.15800
H796        H  0.92210425  0.16142888  0.48092419     0.09400
H797        H  0.90220822  0.21585533  0.41253891     0.07300
H798        H  0.89843723  0.21341754  0.45194238     0.08500
H799        H  0.86693560  0.21870047  0.41181320     0.07500
H800        H  0.87265635  0.14859883  0.41549649     0.02400
H801        H  0.87640207  0.15107786  0.37602947     0.02900
H802        H  0.84033523  0.15238792  0.37445244     0.06400
H803        H  0.94859458  0.16635490  0.36941600     0.05400
H804        H  0.93516930  0.18065286  0.38391452    -0.00400
H805        H  0.91033124  0.16676745  0.36120251     0.01100
H806        H  0.97222954  0.15374025  0.53573067     0.04700
H807        H  0.98930501  0.13908231  0.52861437     0.06700
H808        H  0.95036678  0.13858308  0.51789129     0.07600
C809        C  0.58154304  0.16423789  0.51441717    -0.22100
C810        C  0.58845549  0.17091094  0.54600055     0.09900
C811        C  0.57288310  0.16765120  0.56494230     0.10300
C812        C  0.55026208  0.15786932  0.55155168    -0.17000
C813        C  0.54334347  0.15110629  0.52003100    -0.27400
C814        C  0.55912109  0.15433819  0.50109958     0.18600
C815        C  0.61165731  0.18152350  0.55843802     0.12600
C816        C  0.58058731  0.17431672  0.59958471    -0.11800
H817        H  0.53837347  0.15524711  0.56617426     0.12900
C818        C  0.55241609  0.14792181  0.46641965    -0.22600
H819        H  0.59355581  0.16686937  0.49993357     0.08500
C820        C  0.64224850  0.17823726  0.57726879     0.04900
C821        C  0.66339781  0.18870345  0.58801526    -0.19800
C822        C  0.65450964  0.20232056  0.58034298    -0.12100
C823        C  0.62379762  0.20559153  0.56163850     0.13600
C824        C  0.60273077  0.19511485  0.55107532    -0.22500
C825        C  0.65245409  0.16371364  0.58580965    -0.05600
H826        H  0.68701343  0.18626461  0.60188168     0.15100
C827        C  0.61249274  0.21991168  0.55135603    -0.15800
H828        H  0.57913521  0.19753878  0.53649514     0.09400
H829        H  0.57233507  0.14222887  0.46913208     0.07300
H830        H  0.54700811  0.15597631  0.44622508     0.08500
H831        H  0.53317553  0.14089695  0.45658620     0.07500
H832        H  0.57704904  0.18544307  0.59583971     0.02400
H833        H  0.60434363  0.17226932  0.61840685     0.02900
H834        H  0.56656662  0.17042966  0.61127190     0.06400
H835        H  0.67716127  0.16293729  0.60093186     0.05400
H836        H  0.64506924  0.15785238  0.56115867    -0.00400
H837        H  0.64274243  0.15910392  0.60178943     0.01100
H838        H  0.59944779  0.22064447  0.52230748     0.04700
H839        H  0.63058250  0.22754099  0.56008609     0.06700
H840        H  0.59772166  0.22257954  0.56307833     0.07600
C841        C  0.76642609  0.21981969  0.53356264    -0.22100
C842        C  0.74672718  0.22230218  0.49807804     0.09900
C843        C  0.71675549  0.22577728  0.48774464     0.10300
C844        C  0.70713962  0.22677607  0.51335101    -0.17000
C845        C  0.72656887  0.22395447  0.54881593    -0.27400
C846        C  0.75662763  0.22040781  0.55913424     0.18600
C847        C  0.75737657  0.22021744  0.47183565     0.12600
C848        C  0.69470094  0.22790428  0.44961856    -0.11800
H849        H  0.68399903  0.22926247  0.50553939     0.12900
C850        C  0.77848899  0.21648991  0.59625762    -0.22600
H851        H  0.78931474  0.21692072  0.54113453     0.08500
C852        C  0.76881658  0.23098402  0.46010511     0.04900
C853        C  0.77848574  0.22840622  0.43495650    -0.19800
C854        C  0.77704077  0.21529229  0.42154675    -0.12100
C855        C  0.76490492  0.20457105  0.43288306     0.13600
C856        C  0.75556809  0.20717075  0.45823983    -0.22500
C857        C  0.77126159  0.24508687  0.47459836    -0.05600
H858        H  0.78783461  0.23658238  0.42627556     0.15100
C859        C  0.76066937  0.19038453  0.41825766    -0.15800
H860        H  0.74638741  0.19899216  0.46715635     0.09400
H861        H  0.79780559  0.22353006  0.60632369     0.07300
H862        H  0.78666809  0.20600508  0.59653590     0.08500
H863        H  0.76871464  0.21672495  0.61453922     0.07500
H864        H  0.69293295  0.21849567  0.43463528     0.02400
H865        H  0.70215147  0.23634375  0.43846246     0.02900
H866        H  0.67209011  0.23044284  0.44615729     0.06400
H867        H  0.78087085  0.25230972  0.46271641     0.05400
H868        H  0.78592394  0.24492834  0.50344660    -0.00400
H869        H  0.74884284  0.24887861  0.46910043     0.01100
H870        H  0.77482896  0.18320190  0.43946598     0.04700
H871        H  0.76619997  0.18939042  0.39630386     0.06700
H872        H  0.73691162  0.18738981  0.40794683     0.07600
C873        C  0.88426148  0.32484578  0.89810892    -0.22100
C874        C  0.88047365  0.33743964  0.91060825     0.09900
C875        C  0.85315650  0.34042767  0.91059032     0.10300
C876        C  0.83051040  0.33061202  0.89876644    -0.17000
C877        C  0.83467107  0.31778834  0.88753720    -0.27400
C878        C  0.86206173  0.31483727  0.88741479     0.18600
C879        C  0.90602233  0.34699782  0.92574300     0.12600
C880        C  0.84820334  0.35377655  0.92412991    -0.11800
H881        H  0.80955566  0.33285920  0.89883715     0.12900
C882        C  0.86953822  0.30108922  0.87822708    -0.22600
H883        H  0.90525035  0.32259816  0.89811711     0.08500
C884        C  0.93148687  0.34423094  0.95813954     0.04900
C885        C  0.95443313  0.35387835  0.97235938    -0.19800
C886        C  0.95224847  0.36626874  0.95524907    -0.12100
C887        C  0.92711145  0.36894954  0.92262800     0.13600
C888        C  0.90433812  0.35922480  0.90810692    -0.22500
C889        C  0.93418008  0.33128390  0.97818622    -0.05600
H890        H  0.97398550  0.35185238  0.99723149     0.15100
C891        C  0.92465466  0.38190731  0.90278249    -0.15800
H892        H  0.88499176  0.36119367  0.88301977     0.09400
H893        H  0.89045791  0.29725716  0.90050183     0.07300
H894        H  0.85218049  0.29334615  0.87307778     0.08500
H895        H  0.87300106  0.30199986  0.85463983     0.07500
H896        H  0.84929769  0.36224300  0.90771513     0.02400
H897        H  0.86557378  0.35523254  0.95174877     0.02900
H898        H  0.82600020  0.35421223  0.92345080     0.06400
H899        H  0.95494279  0.33105865  0.00368643     0.05400
H900        H  0.93475508  0.32241430  0.96269650    -0.00400
H901        H  0.91486777  0.33032830  0.98366149     0.01100
H902        H  0.90396365  0.38219184  0.87721588     0.04700
H903        H  0.94407523  0.38282201  0.89749026     0.06700
H904        H  0.92420167  0.39074380  0.91845473     0.07600
C905        C  0.72525320  0.27391458  0.74901900    -0.22100
C906        C  0.74669068  0.26748067  0.74215933     0.09900
C907        C  0.77729690  0.26992082  0.76417956     0.10300
C908        C  0.78581770  0.27811164  0.79390994    -0.17000
C909        C  0.76444808  0.28425514  0.80156729    -0.27400
C910        C  0.73369682  0.28250283  0.77805802     0.18600
C911        C  0.73646885  0.25830454  0.71158366     0.12600
C912        C  0.80092807  0.26407128  0.75606035    -0.11800
H913        H  0.80936076  0.27956470  0.81162482     0.12900
C914        C  0.70927309  0.28982281  0.78201775    -0.22600
H915        H  0.70174058  0.27230607  0.73138089     0.08500
C916        C  0.73567117  0.24411455  0.71549039     0.04900
C917        C  0.72581754  0.23582867  0.68572311    -0.19800
C918        C  0.71593137  0.24140909  0.65201438    -0.12100
C919        C  0.71540091  0.25571510  0.64802805     0.13600
C920        C  0.72623214  0.26395006  0.67800162    -0.22500
C921        C  0.74451375  0.23773385  0.75089336    -0.05600
H922        H  0.72592312  0.22490045  0.68877049     0.15100
C923        C  0.70252401  0.26269961  0.61273838    -0.15800
H924        H  0.72613609  0.27489061  0.67511687     0.09400
H925        H  0.69521938  0.28235725  0.78697007     0.07300
H926        H  0.69504244  0.29546705  0.75741669     0.08500
H927        H  0.71796056  0.29735173  0.80352160     0.07500
H928        H  0.79726504  0.26775084  0.72992686     0.02400
H929        H  0.79999716  0.25283553  0.75573857     0.02900
H930        H  0.82372789  0.26714137  0.77583954     0.06400
H931        H  0.74207408  0.22652149  0.74909201     0.05400
H932        H  0.73004240  0.24174069  0.76180530    -0.00400
H933        H  0.76811673  0.24006812  0.76935495     0.01100
H934        H  0.68491905  0.26996249  0.61051077     0.04700
H935        H  0.69197917  0.25560761  0.59036614     0.06700
H936        H  0.72040305  0.26839221  0.61029363     0.07600
C937        C  0.62843926  0.32515625  0.09186614    -0.22100
C938        C  0.59833411  0.32213826  0.06987344     0.09900
C939        C  0.59048548  0.30932047  0.05351190     0.10300
C940        C  0.61309244  0.29984207  0.05929835    -0.17000
C941        C  0.64322012  0.30290506  0.08119904    -0.27400
C942        C  0.65101735  0.31568280  0.09789094     0.18600
C943        C  0.57567998  0.33279302  0.06361878     0.12600
C944        C  0.55831944  0.30561139  0.03036690    -0.11800
H945        H  0.60729266  0.28999161  0.04675485     0.12900
C946        C  0.68284839  0.31969364  0.12197358    -0.22600
H947        H  0.63436818  0.33503183  0.10427911     0.08500
C948        C  0.56642285  0.33598773  0.08903387     0.04900
C949        C  0.54636851  0.34679313  0.08270674    -0.19800
C950        C  0.53558899  0.35451228  0.05166278    -0.12100
C951        C  0.54403284  0.35092215  0.02564099     0.13600
C952        C  0.56426768  0.34021915  0.03220624    -0.22500
C953        C  0.57773773  0.32799481  0.12274192    -0.05600
H954        H  0.53957711  0.34942857  0.10240597     0.15100
C955        C  0.53153236  0.35778210  0.99022336    -0.15800
H956        H  0.57120795  0.33762233  0.01260069     0.09400
H957        H  0.68525044  0.32204790  0.14839923     0.07300
H958        H  0.68858252  0.32887779  0.11135347     0.08500
H959        H  0.69923285  0.31165053  0.12508854     0.07500
H960        H  0.54828051  0.31263233  0.00753947     0.02400
H961        H  0.54567805  0.30632424  0.04559650     0.02900
H962        H  0.55609167  0.29510054  0.02018805     0.06400
H963        H  0.56792902  0.33167828  0.13952442     0.05400
H964        H  0.60238396  0.32892020  0.13792270    -0.00400
H965        H  0.57174772  0.31713555  0.11671172     0.01100
H966        H  0.54982076  0.36293000  0.98740800     0.04700
H967        H  0.51389309  0.36531944  0.98578130     0.06700
H968        H  0.52133945  0.35003597  0.96925491     0.07600
C969        C  0.78133102  0.24005891  0.26461838    -0.22100
C970        C  0.75017590  0.24026579  0.24457911     0.09900
C971        C  0.73248644  0.23264305  0.25564700     0.10300
C972        C  0.74642111  0.22515849  0.28695530    -0.17000
C973        C  0.77759317  0.22533100  0.30792954    -0.27400
C974        C  0.79533264  0.23295475  0.29657655     0.18600
C975        C  0.73655396  0.24906800  0.21300871     0.12600
C976        C  0.69890322  0.23270154  0.23500400    -0.11800
H977        H  0.73283192  0.21927781  0.29545955     0.12900
C978        C  0.82870613  0.23454345  0.31795392    -0.22600
H979        H  0.79476398  0.24597097  0.25592653     0.08500
C980        C  0.73561389  0.26330704  0.21591376     0.04900
C981        C  0.72295405  0.27127069  0.18529672    -0.19800
C982        C  0.71084190  0.26530654  0.15187379    -0.12100
C983        C  0.71073787  0.25098471  0.14906202     0.13600
C984        C  0.72414427  0.24307553  0.17971850    -0.22500
C985        C  0.74760806  0.27007426  0.25126652    -0.05600
H986        H  0.72277052  0.28222795  0.18741605     0.15100
C987        C  0.69582494  0.24365888  0.11439136    -0.15800
H988        H  0.72452055  0.23211890  0.17766181     0.09400
H989        H  0.83436644  0.24550626  0.32170936     0.07300
H990        H  0.83992047  0.22988142  0.30370723     0.08500
H991        H  0.83794912  0.22999069  0.34448818     0.07500
H992        H  0.69182571  0.22850846  0.20838443     0.02400
H993        H  0.69040204  0.24324773  0.23261102     0.02900
H994        H  0.68851155  0.22645370  0.24791763     0.06400
H995        H  0.74434829  0.28124821  0.24871715     0.05400
H996        H  0.77189499  0.26804669  0.26686573    -0.00400
H997        H  0.73585109  0.26608815  0.26566636     0.01100
H998        H  0.71285317  0.23799115  0.11016730     0.04700
H999        H  0.68354730  0.25052054  0.09171229     0.06700
H1000       H  0.67929114  0.23634692  0.11479485     0.07600
C1001       C  0.72910429  0.29219261  0.93811194    -0.22100
C1002       C  0.74801215  0.28544316  0.96937797     0.09900
C1003       C  0.77641216  0.28098644  0.97499685     0.10300
C1004       C  0.78558658  0.28370956  0.94936747    -0.17000
C1005       C  0.76679703  0.29067095  0.91826980    -0.27400
C1006       C  0.73817694  0.29490096  0.91249767     0.18600
C1007       C  0.73818939  0.28415999  0.99674023     0.12600
C1008       C  0.79706567  0.27358484  0.00820654    -0.11800
H1009       H  0.80756661  0.28053399  0.95369688     0.12900
C1010       C  0.71761624  0.30271438  0.87996510    -0.22600
H1011       H  0.70741847  0.29565845  0.93420159     0.08500
C1012       C  0.74170476  0.29505352  0.01954242     0.04900
C1013       C  0.72950783  0.29409188  0.04278865    -0.19800
C1014       C  0.71414047  0.28243639  0.04401255    -0.12100
C1015       C  0.71131151  0.27134793  0.02184962     0.13600
C1016       C  0.72332222  0.27237418  0.99828702    -0.22500
C1017       C  0.75816707  0.30773302  0.01912548    -0.05600
H1018       H  0.73176653  0.30252183  0.05999323     0.15100
C1019       C  0.69476745  0.25867395  0.02209313    -0.15800
H1020       H  0.72063665  0.26408876  0.98053747     0.09400
H1021       H  0.69670363  0.30578474  0.88050465     0.07300
H1022       H  0.71135517  0.29632416  0.85641172     0.08500
H1023       H  0.72892152  0.31204906  0.87775086     0.07500
H1024       H  0.78627155  0.26409043  0.01047377     0.02400
H1025       H  0.80212957  0.28008718  0.03133521     0.02900
H1026       H  0.81849203  0.27085425  0.00850878     0.06400
H1027       H  0.75910227  0.31521812  0.03886934     0.05400
H1028       H  0.74678435  0.31261295  0.99282656    -0.00400
H1029       H  0.78142816  0.30511595  0.02519045     0.01100
H1030       H  0.69362812  0.25127395  0.00207422     0.04700
H1031       H  0.67158120  0.26129631  0.01634431     0.06700
H1032       H  0.70630291  0.25364335  0.04815268     0.07600
loop_ 
_geom_bond_atom_site_label_1 
_geom_bond_atom_site_label_2 
_geom_bond_distance 
_geom_bond_site_symmetry_2 
_ccdc_geom_bond_type 
C1            C2   1.401       .  A
C1            C6   1.400       .  A
C1          C941   1.475       .  S
C2            C3   1.404       .  A
C2            H7   1.084       .  S
C3            C4   1.402       .  A
C3         C1014   1.480       .  S
C4            C5   1.405       .  A
C4            H8   1.084       .  S
C5            C6   1.403       .  A
C5          C982   1.481       .  S
C6            H9   1.084       .  S
C10          C11   1.404       .  A
C10          C15   1.404       .  A
C10         C877   1.483       .  S
C11          C12   1.401       .  A
C11          H16   1.084       .  S
C12          C13   1.402       .  A
C12        C1005   1.479       .  S
C13          C14   1.405       .  A
C13          H17   1.084       .  S
C14          C15   1.405       .  A
C14         C909   1.484       .  S
C15          H18   1.084       .  S
C19          C20   1.402       .  A
C19          C24   1.394       .  A
C19         C822   1.472       .  S
C20          C21   1.408       .  A
C20          H25   1.084       .  S
C21          C22   1.407       .  A
C21         C918   1.484       .  S
C22          C23   1.402       .  A
C22          H26   1.084       .  S
C23          C24   1.397       .  A
C23         C845   1.474       .  S
C24          H27   1.085       .  S
C28          C29   1.397       .  A
C28          C33   1.401       .  A
C28         C781   1.469       .  S
C29          C30   1.399       .  A
C29          H34   1.084       .  S
C30          C31   1.401       .  A
C30         C854   1.477       .  S
C31          C32   1.406       .  A
C31          H35   1.084       .  S
C32          C33   1.405       .  A
C32         C973   1.484       .  S
C33          H36   1.084       .  S
N37          N38   1.321   1_655  A
N37          C41   1.345       .  A
N37         Cu45   2.075       .  S
N38          C39   1.344       .  A
N38         Cu44   2.070       .  S
C39          C40   1.383   1_455  A
C39          H42   1.082       .  S
C40          C41   1.386       .  A
C40         C685   1.482   1_655  S
C41          H43   1.081       .  S
Cu44         N47   2.070       .  S
Cu45         N55   2.074       .  S
Cu46         N48   2.078   1_655  S
Cu46         N54   2.078       .  S
N47          N48   1.322       .  A
N47          C51   1.344       .  A
N48          C49   1.346       .  A
C49          C50   1.384       .  A
C49          H52   1.082       .  S
C50          C51   1.383       .  A
C50         C758   1.479       .  S
C51          H53   1.082       .  S
N54          N55   1.323       .  A
N54          C58   1.345       .  A
N55          C56   1.344       .  A
C56          C57   1.384       .  A
C56          H59   1.082       .  S
C57          C58   1.384       .  A
C57         C726   1.478       .  S
C58          H60   1.082       .  S
N61          N62   1.320       .  A
N61          C65   1.342       .  A
N61         Cu69   2.054       .  S
N62          C63   1.345       .  A
N62         Cu68   2.078       .  S
C63          C64   1.387       .  A
C63          H66   1.082       .  S
C64          C65   1.381       .  A
C64         C621   1.478       .  S
C65          H67   1.082       .  S
Cu68         N71   2.079       .  S
Cu69         N79   2.054       .  S
Cu70         N72   2.075       .  S
Cu70         N78   2.074       .  S
N71          N72   1.324       .  A
N71          C75   1.346       .  A
N72          C73   1.344       .  A
C73          C74   1.383       .  A
C73          H76   1.081       .  S
C74          C75   1.384       .  A
C74         C653   1.479       .  S
C75          H77   1.082       .  S
N78          N79   1.321       .  A
N78          C82   1.347       .  A
N79          C80   1.339       .  A
C80          C81   1.380       .  A
C80          H83   1.082       .  S
C81          C82   1.386       .  A
C81         C717   1.476       .  S
C82          H84   1.082       .  S
N85          N86   1.322       .  A
N85          C89   1.344       .  A
N85         Cu93   2.070       .  S
N86          C87   1.343       .  A
N86         Cu92   2.062       .  S
C87          C88   1.381       .  A
C87          H90   1.082       .  S
C88          C89   1.383       .  A
C88         C813   1.472       .  S
C89          H91   1.082       .  S
Cu92         N95   2.062       .  S
Cu93        N103   2.069       .  S
Cu94         N96   2.062       .  S
Cu94        N102   2.062       .  S
N95          N96   1.321       .  A
N95          C99   1.343       .  A
N96          C97   1.342       .  A
C97          C98   1.381       .  A
C97         H100   1.082       .  S
C98          C99   1.382       .  A
C98         C630   1.472       .  S
C99         H101   1.082       .  S
N102        N103   1.322       .  A
N102        C106   1.342       .  A
N103        C104   1.344       .  A
C104        C105   1.383       .  A
C104        H107   1.082       .  S
C105        C106   1.382       .  A
C105        C598   1.474       .  S
C106        H108   1.082       .  S
N109        N110   1.323       .  A
N109        C113   1.344       .  A
N109       Cu117   2.067       .  S
N110        C111   1.343   1_455  A
N110       Cu116   2.074       .  S
C111        C112   1.382       .  A
C111        H114   1.082       .  S
C112        C113   1.381   1_655  A
C112        C790   1.474       .  S
C113        H115   1.082       .  S
Cu116       N119   2.074       .  S
Cu117       N127   2.067       .  S
Cu118       N120   2.072       .  S
Cu118       N126   2.071       .  S
N119        N120   1.321       .  A
N119        C123   1.346       .  A
N120        C121   1.344       .  A
C121        C122   1.385       .  A
C121        H124   1.082       .  S
C122        C123   1.385       .  A
C122        C694   1.483       .  S
C123        H125   1.082       .  S
N126        N127   1.321       .  A
N126        C130   1.343       .  A
N127        C128   1.345       .  A
C128        C129   1.385       .  A
C128        H131   1.082       .  S
C129        C130   1.385       .  A
C129        C589   1.481       .  S
C130        H132   1.082       .  S
C133        C134   1.400       .  A
C133        C138   1.402       .  A
C133        C493   1.477       .  S
C134        C135   1.401       .  A
C134        H139   1.084       .  S
C135        C136   1.403       .  A
C135        C566   1.474       .  S
C136        C137   1.406       .  A
C136        H140   1.082       .  S
C137        C138   1.405       .  A
C137        C534   1.485       .  S
C138        H141   1.084       .  S
C142        C143   1.400       .  A
C142        C147   1.400       .  A
C142        C429   1.473       .  S
C143        C144   1.403       .  A
C143        H148   1.084       .  S
C144        C145   1.404       .  A
C144        C461   1.479       .  S
C145        C146   1.402       .  A
C145        H149   1.083       .  S
C146        C147   1.401       .  A
C146        C557   1.475       .  S
C147        H150   1.084       .  S
C151        C152   1.401       .  A
C151        C156   1.403       .  A
C151        C662   1.478       .  S
C152        C153   1.403       .  A
C152        H157   1.084       .  S
C153        C154   1.402       .  A
C153        C406   1.479       .  S
C154        C155   1.403       .  A
C154        H158   1.084       .  S
C155        C156   1.405       .  A
C155        C525   1.480       .  S
C156        H159   1.084       .  S
C160        C161   1.401       .  A
C160        C165   1.401       .  A
C160        C749   1.476       .  S
C161        C162   1.406       .  A
C161        H166   1.084       .  S
C162        C163   1.403       .  A
C162        C470   1.483       .  S
C163        C164   1.401       .  A
C163        H167   1.084       .  S
C164        C165   1.402       .  A
C164        C397   1.475       .  S
C165        H168   1.084       .  S
N169        N170   1.323       .  A
N169        C173   1.346       .  A
N169       Cu177   2.084   1_455  S
N170        C171   1.343       .  A
N170       Cu176   2.066       .  S
C171        C172   1.382       .  A
C171        H174   1.082       .  S
C172        C173   1.387       .  A
C172        C502   1.481       .  S
C173        H175   1.080   1_455  S
Cu176       N179   2.066       .  S
Cu177       N187   2.084       .  S
Cu178       N180   2.066       .  S
Cu178       N186   2.067       .  S
N179        N180   1.321   1_455  A
N179        C183   1.345       .  A
N180        C181   1.342       .  A
C181        C182   1.383   1_655  A
C181        H184   1.082       .  S
C182        C183   1.385       .  A
C182        C333   1.478       .  S
C183        H185   1.082       .  S
N186        N187   1.322       .  A
N186        C190   1.344       .  A
N187        C188   1.347       .  A
C188        C189   1.387       .  A
C188        H191   1.082       .  S
C189        C190   1.382       .  A
C189        C365   1.482       .  S
C190        H192   1.082       .  S
N193        N194   1.322       .  A
N193        C197   1.350       .  A
N193       Cu201   2.089       .  S
N194        C195   1.344   1_556  A
N194       Cu200   2.079       .  S
C195        C196   1.386       .  A
C195        H198   1.082       .  S
C196        C197   1.391   1_554  A
C196        C374   1.491       .  S
C197        H199   1.082       .  S
Cu200       N203   2.078       .  S
Cu201       N211   2.089       .  S
Cu202       N204   2.084       .  S
Cu202       N210   2.084       .  S
N203        N204   1.322       .  A
N203        C207   1.346       .  A
N204        C205   1.347       .  A
C205        C206   1.388       .  A
C205        H208   1.082       .  S
C206        C207   1.385       .  A
C206        C301   1.488       .  S
C207        H209   1.082       .  S
N210        N211   1.324       .  A
N210        C214   1.347       .  A
N211        C212   1.347       .  A
C212        C213   1.385       .  A
C212        H215   1.082       .  S
C213        C214   1.384       .  A
C213        C438   1.483       .  S
C214        H216   1.082       .  S
N217        N218   1.324       .  A
N217        C221   1.343       .  A
N217       Cu225   2.067   1_556  S
N218        C219   1.346   1_455  A
N218       Cu224   2.083   1_556  S
C219        C220   1.384       .  A
C219        H222   1.082       .  S
C220        C221   1.378   1_655  A
C220        C886   1.473       .  S
C221        H223   1.082       .  S
Cu224       N227   2.082       .  S
Cu225       N235   2.066       .  S
Cu226       N228   2.064       .  S
Cu226       N234   2.065       .  S
N227        N228   1.322       .  A
N227        C231   1.347       .  A
N228        C229   1.342       .  A
C229        C230   1.380       .  A
C229        H232   1.082       .  S
C230        C231   1.386       .  A
C230        C342   1.477       .  S
C231        H233   1.082       .  S
N234        N235   1.321       .  A
N234        C238   1.343       .  A
N235        C236   1.345       .  A
C236        C237   1.382       .  A
C236        H239   1.082       .  S
C237        C238   1.382       .  A
C237        C269   1.473       .  S
C238        H240   1.082       .  S
N241        N242   1.324       .  A
N241        C245   1.346       .  A
N241       Cu249   2.077       .  S
N242        C243   1.346       .  A
N242       Cu248   2.087       .  S
C243        C244   1.385       .  A
C243        H246   1.082       .  S
C244        C245   1.381       .  A
C244        C950   1.480       .  S
C245        H247   1.082       .  S
Cu248       N251   2.087       .  S
Cu249       N259   2.076       .  S
Cu250       N252   2.074       .  S
Cu250       N258   2.074       .  S
N251        N252   1.322       .  A
N251        C255   1.348       .  A
N252        C253   1.344   1_554  A
C253        C254   1.385       .  A
C253        H256   1.082       .  S
C254        C255   1.389   1_556  A
C254        C310   1.487       .  S
C255        H257   1.082       .  S
N258        N259   1.321       .  A
N258        C262   1.344       .  A
N259        C260   1.347       .  A
C260        C261   1.388       .  A
C260        H263   1.082       .  S
C261        C262   1.386       .  A
C261        C278   1.486       .  S
C262        H264   1.082   1_554  S
C265        C266   1.401       .  A
C265        C270   1.402       .  A
C265        H275   1.085       .  S
C266        C267   1.412   1_554  A
C266        C271   1.482       .  S
C267        C268   1.403   1_556  A
C267        C272   1.506       .  S
C268        C269   1.402       .  A
C268        H273   1.084   1_554  S
C269        C270   1.414       .  A
C270        C274   1.507       .  S
C271        C276   1.410       .  A
C271        C280   1.401       .  A
C272        H288   1.110       .  S
C272        H289   1.110       .  S
C272        H290   1.111       .  S
C274        H285   1.110       .  S
C274        H286   1.110       .  S
C274        H287   1.108       .  S
C276        C277   1.401       .  A
C276        C281   1.508       .  S
C277        C278   1.406       .  A
C277        H282   1.084       .  S
C278        C279   1.420       .  A
C279        C280   1.405       .  A
C279        C283   1.507   1_554  S
C280        H284   1.085       .  S
C281        H291   1.111       .  S
C281        H292   1.109       .  S
C281        H293   1.110       .  S
C283        H294   1.110   1_556  S
C283        H295   1.105       .  S
C283        H296   1.111       .  S
C297        C298   1.400       .  A
C297        C302   1.405       .  A
C297        H307   1.085       .  S
C298        C299   1.410   1_556  A
C298        C303   1.485       .  S
C299        C300   1.406       .  A
C299        C304   1.506       .  S
C300        C301   1.407   1_554  A
C300        H305   1.084       .  S
C301        C302   1.420       .  A
C302        C306   1.507       .  S
C303        C308   1.409   1_556  A
C303        C312   1.402       .  A
C304        H320   1.110       .  S
C304        H321   1.110       .  S
C304        H322   1.111       .  S
C306        H317   1.110       .  S
C306        H318   1.111       .  S
C306        H319   1.105       .  S
C308        C309   1.404       .  A
C308        C313   1.507       .  S
C309        C310   1.406   1_554  A
C309        H314   1.084       .  S
C310        C311   1.419       .  A
C311        C312   1.407       .  A
C311        C315   1.507       .  S
C312        H316   1.084       .  S
C313        H323   1.111       .  S
C313        H324   1.110       .  S
C313        H325   1.110       .  S
C315        H326   1.111       .  S
C315        H327   1.106       .  S
C315        H328   1.110       .  S
C329        C330   1.400       .  A
C329        C334   1.403       .  A
C329        H339   1.085       .  S
C330        C331   1.408       .  A
C330        C335   1.475       .  S
C331        C332   1.400   1_455  A
C331        C336   1.507   1_455  S
C332        C333   1.405   1_655  A
C332        H337   1.084       .  S
C333        C334   1.419       .  A
C334        C338   1.508       .  S
C335        C340   1.408       .  A
C335        C344   1.400       .  A
C336        H352   1.110       .  S
C336        H353   1.110       .  S
C336        H354   1.111       .  S
C338        H349   1.110       .  S
C338        H350   1.111       .  S
C338        H351   1.105       .  S
C340        C341   1.402       .  A
C340        C345   1.507       .  S
C341        C342   1.406       .  A
C341        H346   1.084       .  S
C342        C343   1.416       .  A
C343        C344   1.401       .  A
C343        C347   1.507       .  S
C344        H348   1.085       .  S
C345        H355   1.111       .  S
C345        H356   1.110       .  S
C345        H357   1.110       .  S
C347        H358   1.111       .  S
C347        H359   1.107       .  S
C347        H360   1.110   1_455  S
C361        C362   1.404       .  A
C361        C366   1.406       .  A
C361        H371   1.084       .  S
C362        C363   1.414       .  A
C362        C367   1.491       .  S
C363        C364   1.404       .  A
C363        C368   1.507   1_554  S
C364        C365   1.403       .  A
C364        H369   1.084   1_554  S
C365        C366   1.417       .  A
C366        C370   1.508       .  S
C367        C372   1.412       .  A
C367        C376   1.403       .  A
C368        H384   1.109       .  S
C368        H385   1.110       .  S
C368        H386   1.111       .  S
C370        H381   1.111       .  S
C370        H382   1.110       .  S
C370        H383   1.106       .  S
C372        C373   1.404       .  A
C372        C377   1.508       .  S
C373        C374   1.406       .  A
C373        H378   1.084       .  S
C374        C375   1.421   1_554  A
C375        C376   1.408   1_556  A
C375        C379   1.507       .  S
C376        H380   1.084   1_554  S
C377        H387   1.111       .  S
C377        H388   1.109       .  S
C377        H389   1.110       .  S
C379        H390   1.110       .  S
C379        H391   1.104       .  S
C379        H392   1.111       .  S
C393        C394   1.401       .  A
C393        C398   1.402       .  A
C393        H403   1.084       .  S
C394        C395   1.410       .  A
C394        C399   1.477       .  S
C395        C396   1.403       .  A
C395        C400   1.506       .  S
C396        C397   1.403       .  A
C396        H401   1.084       .  S
C397        C398   1.413       .  A
C398        C402   1.507       .  S
C399        C404   1.410       .  A
C399        C408   1.401       .  A
C400        H416   1.110       .  S
C400        H417   1.110       .  S
C400        H418   1.111       .  S
C402        H413   1.111       .  S
C402        H414   1.109       .  S
C402        H415   1.110       .  S
C404        C405   1.400       .  A
C404        C409   1.507       .  S
C405        C406   1.403       .  A
C405        H410   1.084       .  S
C406        C407   1.416       .  A
C407        C408   1.405       .  A
C407        C411   1.508       .  S
C408        H412   1.084       .  S
C409        H419   1.111       .  S
C409        H420   1.110       .  S
C409        H421   1.110       .  S
C411        H422   1.111       .  S
C411        H423   1.110       .  S
C411        H424   1.108       .  S
C425        C426   1.402       .  A
C425        C430   1.403       .  A
C425        H435   1.084       .  S
C426        C427   1.411       .  A
C426        C431   1.482       .  S
C427        C428   1.403       .  A
C427        C432   1.506       .  S
C428        C429   1.401       .  A
C428        H433   1.084       .  S
C429        C430   1.414       .  A
C430        C434   1.508       .  S
C431        C436   1.410       .  A
C431        C440   1.400       .  A
C432        H448   1.110       .  S
C432        H449   1.110       .  S
C432        H450   1.111       .  S
C434        H445   1.110       .  S
C434        H446   1.110       .  S
C434        H447   1.109       .  S
C436        C437   1.405       .  A
C436        C441   1.507       .  S
C437        C438   1.405       .  A
C437        H442   1.084       .  S
C438        C439   1.418       .  A
C439        C440   1.404       .  A
C439        C443   1.507       .  S
C440        H444   1.085       .  S
C441        H451   1.111   1_556  S
C441        H452   1.110       .  S
C441        H453   1.110       .  S
C443        H454   1.111       .  S
C443        H455   1.106       .  S
C443        H456   1.110       .  S
C457        C458   1.401       .  A
C457        C462   1.402       .  A
C457        H467   1.084       .  S
C458        C459   1.412       .  A
C458        C463   1.480       .  S
C459        C460   1.403       .  A
C459        C464   1.507       .  S
C460        C461   1.404       .  A
C460        H465   1.084       .  S
C461        C462   1.415       .  A
C462        C466   1.508       .  S
C463        C468   1.411       .  A
C463        C472   1.400       .  A
C464        H480   1.109       .  S
C464        H481   1.110       .  S
C464        H482   1.111       .  S
C466        H477   1.111       .  S
C466        H478   1.108       .  S
C466        H479   1.110       .  S
C468        C469   1.403       .  A
C468        C473   1.507       .  S
C469        C470   1.406       .  A
C469        H474   1.084       .  S
C470        C471   1.418       .  A
C471        C472   1.401       .  A
C471        C475   1.509       .  S
C472        H476   1.084       .  S
C473        H483   1.111       .  S
C473        H484   1.109       .  S
C473        H485   1.111       .  S
C475        H486   1.110       .  S
C475        H487   1.106       .  S
C475        H488   1.111       .  S
C489        C490   1.400       .  A
C489        C494   1.401       .  A
C489        H499   1.085       .  S
C490        C491   1.410       .  A
C490        C495   1.477       .  S
C491        C492   1.403       .  A
C491        C496   1.506       .  S
C492        C493   1.404       .  A
C492        H497   1.084       .  S
C493        C494   1.415       .  A
C494        C498   1.508       .  S
C495        C500   1.408       .  A
C495        C504   1.400       .  A
C496        H512   1.110       .  S
C496        H513   1.110       .  S
C496        H514   1.111       .  S
C498        H509   1.111       .  S
C498        H510   1.110       .  S
C498        H511   1.108       .  S
C500        C501   1.402       .  A
C500        C505   1.507       .  S
C501        C502   1.405       .  A
C501        H506   1.084       .  S
C502        C503   1.416       .  A
C503        C504   1.405       .  A
C503        C507   1.507       .  S
C504        H508   1.084       .  S
C505        H515   1.111       .  S
C505        H516   1.110       .  S
C505        H517   1.110       .  S
C507        H518   1.111       .  S
C507        H519   1.110       .  S
C507        H520   1.107       .  S
C521        C522   1.402       .  A
C521        C526   1.401       .  A
C521        H531   1.084       .  S
C522        C523   1.411       .  A
C522        C527   1.483       .  S
C523        C524   1.404       .  A
C523        C528   1.506       .  S
C524        C525   1.405       .  A
C524        H529   1.084       .  S
C525        C526   1.415       .  A
C526        C530   1.508       .  S
C527        C532   1.411       .  A
C527        C536   1.403       .  A
C528        H544   1.109       .  S
C528        H545   1.110       .  S
C528        H546   1.111       .  S
C530        H541   1.111       .  S
C530        H542   1.110       .  S
C530        H543   1.107       .  S
C532        C533   1.401       .  A
C532        C537   1.507       .  S
C533        C534   1.404       .  A
C533        H538   1.084       .  S
C534        C535   1.418       .  A
C535        C536   1.406       .  A
C535        C539   1.508       .  S
C536        H540   1.084       .  S
C537        H547   1.111       .  S
C537        H548   1.109       .  S
C537        H549   1.111       .  S
C539        H550   1.107       .  S
C539        H551   1.110       .  S
C539        H552   1.111       .  S
C553        C554   1.401       .  A
C553        C558   1.402       .  A
C553        H563   1.084       .  S
C554        C555   1.412   1_556  A
C554        C559   1.480   1_556  S
C555        C556   1.403   1_554  A
C555        C560   1.507       .  S
C556        C557   1.402       .  A
C556        H561   1.084       .  S
C557        C558   1.415       .  A
C558        C562   1.508       .  S
C559        C564   1.412       .  A
C559        C568   1.400       .  A
C560        H576   1.109       .  S
C560        H577   1.110       .  S
C560        H578   1.111       .  S
C562        H573   1.110       .  S
C562        H574   1.110       .  S
C562        H575   1.107       .  S
C564        C565   1.406       .  A
C564        C569   1.506   1_554  S
C565        C566   1.403       .  A
C565        H570   1.084       .  S
C566        C567   1.414       .  A
C567        C568   1.399       .  A
C567        C571   1.508       .  S
C568        H572   1.085       .  S
C569        H579   1.111   1_556  S
C569        H580   1.110       .  S
C569        H581   1.110   1_556  S
C571        H582   1.110       .  S
C571        H583   1.108       .  S
C571        H584   1.110       .  S
C585        C586   1.400       .  A
C585        C590   1.400       .  A
C585        H595   1.085       .  S
C586        C587   1.409       .  A
C586        C591   1.477       .  S
C587        C588   1.402       .  A
C587        C592   1.507       .  S
C588        C589   1.406       .  A
C588        H593   1.084       .  S
C589        C590   1.418       .  A
C590        C594   1.508       .  S
C591        C596   1.411       .  A
C591        C600   1.401       .  A
C592        H608   1.109       .  S
C592        H609   1.110       .  S
C592        H610   1.111       .  S
C594        H605   1.111       .  S
C594        H606   1.110       .  S
C594        H607   1.106       .  S
C596        C597   1.401       .  A
C596        C601   1.507       .  S
C597        C598   1.403       .  A
C597        H602   1.084       .  S
C598        C599   1.415       .  A
C599        C600   1.400       .  A
C599        C603   1.508       .  S
C600        H604   1.085       .  S
C601        H611   1.111       .  S
C601        H612   1.109       .  S
C601        H613   1.110       .  S
C603        H614   1.110       .  S
C603        H615   1.107       .  S
C603        H616   1.111       .  S
C617        C618   1.398   1_565  A
C617        C622   1.400       .  A
C617        H627   1.085       .  S
C618        C619   1.408   1_545  A
C618        C623   1.473       .  S
C619        C620   1.402       .  A
C619        C624   1.506   1_565  S
C620        C621   1.407       .  A
C620        H625   1.084       .  S
C621        C622   1.418       .  A
C622        C626   1.508       .  S
C623        C628   1.408       .  A
C623        C632   1.399       .  A
C624        H640   1.110       .  S
C624        H641   1.110       .  S
C624        H642   1.111       .  S
C626        H637   1.110       .  S
C626        H638   1.111       .  S
C626        H639   1.106       .  S
C628        C629   1.400       .  A
C628        C633   1.506       .  S
C629        C630   1.404       .  A
C629        H634   1.084       .  S
C630        C631   1.417       .  A
C631        C632   1.401       .  A
C631        C635   1.508       .  S
C632        H636   1.085       .  S
C633        H643   1.111       .  S
C633        H644   1.110       .  S
C633        H645   1.110       .  S
C635        H646   1.111       .  S
C635        H647   1.106       .  S
C635        H648   1.110       .  S
C649        C650   1.400       .  A
C649        C654   1.404       .  A
C649        H659   1.084       .  S
C650        C651   1.410       .  A
C650        C655   1.480       .  S
C651        C652   1.404       .  A
C651        C656   1.506       .  S
C652        C653   1.404       .  A
C652        H657   1.084       .  S
C653        C654   1.416       .  A
C654        C658   1.507       .  S
C655        C660   1.411       .  A
C655        C664   1.401       .  A
C656        H672   1.110       .  S
C656        H673   1.110       .  S
C656        H674   1.111       .  S
C658        H669   1.110       .  S
C658        H670   1.111       .  S
C658        H671   1.107       .  S
C660        C661   1.404       .  A
C660        C665   1.506       .  S
C661        C662   1.403       .  A
C661        H666   1.084       .  S
C662        C663   1.415       .  A
C663        C664   1.403       .  A
C663        C667   1.508       .  S
C664        H668   1.084       .  S
C665        H675   1.111       .  S
C665        H676   1.110       .  S
C665        H677   1.110       .  S
C667        H678   1.110       .  S
C667        H679   1.108       .  S
C667        H680   1.110       .  S
C681        C682   1.401       .  A
C681        C686   1.405       .  A
C681        H691   1.084   1_565  S
C682        C683   1.409       .  A
C682        C687   1.481   1_565  S
C683        C684   1.404       .  A
C683        C688   1.506       .  S
C684        C685   1.405       .  A
C684        H689   1.084       .  S
C685        C686   1.416       .  A
C686        C690   1.507   1_455  S
C687        C692   1.410       .  A
C687        C696   1.399       .  A
C688        H704   1.110       .  S
C688        H705   1.110       .  S
C688        H706   1.111       .  S
C690        H701   1.107       .  S
C690        H702   1.111       .  S
C690        H703   1.110   1_655  S
C692        C693   1.404       .  A
C692        C697   1.506   1_455  S
C693        C694   1.405       .  A
C693        H698   1.084   1_455  S
C694        C695   1.419       .  A
C695        C696   1.403       .  A
C695        C699   1.508       .  S
C696        H700   1.085       .  S
C697        H707   1.111       .  S
C697        H708   1.110       .  S
C697        H709   1.110       .  S
C699        H710   1.111       .  S
C699        H711   1.105       .  S
C699        H712   1.110       .  S
C713        C714   1.399       .  A
C713        C718   1.399       .  A
C713        H723   1.085       .  S
C714        C715   1.409       .  A
C714        C719   1.476       .  S
C715        C716   1.404       .  A
C715        C720   1.505       .  S
C716        C717   1.405       .  A
C716        H721   1.084       .  S
C717        C718   1.417       .  A
C718        C722   1.508       .  S
C719        C724   1.408       .  A
C719        C728   1.400       .  A
C720        H736   1.110       .  S
C720        H737   1.110       .  S
C720        H738   1.111       .  S
C722        H733   1.111       .  S
C722        H734   1.110       .  S
C722        H735   1.107       .  S
C724        C725   1.402       .  A
C724        C729   1.506       .  S
C725        C726   1.405       .  A
C725        H730   1.084       .  S
C726        C727   1.417       .  A
C727        C728   1.402       .  A
C727        C731   1.507       .  S
C728        H732   1.085       .  S
C729        H739   1.111       .  S
C729        H740   1.110       .  S
C729        H741   1.110       .  S
C731        H742   1.110       .  S
C731        H743   1.107       .  S
C731        H744   1.111       .  S
C745        C746   1.401       .  A
C745        C750   1.403       .  A
C745        H755   1.084       .  S
C746        C747   1.412       .  A
C746        C751   1.481       .  S
C747        C748   1.404       .  A
C747        C752   1.506       .  S
C748        C749   1.401       .  A
C748        H753   1.084       .  S
C749        C750   1.415       .  A
C750        C754   1.508       .  S
C751        C756   1.410       .  A
C751        C760   1.400       .  A
C752        H768   1.110       .  S
C752        H769   1.110       .  S
C752        H770   1.111       .  S
C754        H765   1.110       .  S
C754        H766   1.110       .  S
C754        H767   1.108       .  S
C756        C757   1.404       .  A
C756        C761   1.506       .  S
C757        C758   1.404       .  A
C757        H762   1.084       .  S
C758        C759   1.417       .  A
C759        C760   1.403       .  A
C759        C763   1.508       .  S
C760        H764   1.084       .  S
C761        H771   1.111       .  S
C761        H772   1.110       .  S
C761        H773   1.109       .  S
C763        H774   1.110       .  S
C763        H775   1.106       .  S
C763        H776   1.111       .  S
C777        C778   1.399       .  A
C777        C782   1.399       .  A
C777        H787   1.084       .  S
C778        C779   1.411       .  A
C778        C783   1.474       .  S
C779        C780   1.403       .  A
C779        C784   1.506       .  S
C780        C781   1.402       .  A
C780        H785   1.084       .  S
C781        C782   1.413       .  A
C782        C786   1.508       .  S
C783        C788   1.409       .  A
C783        C792   1.400       .  A
C784        H800   1.110       .  S
C784        H801   1.110       .  S
C784        H802   1.111       .  S
C786        H797   1.110       .  S
C786        H798   1.110       .  S
C786        H799   1.108       .  S
C788        C789   1.402       .  A
C788        C793   1.506       .  S
C789        C790   1.404       .  A
C789        H794   1.084       .  S
C790        C791   1.416       .  A
C791        C792   1.401       .  A
C791        C795   1.508       .  S
C792        H796   1.085       .  S
C793        H803   1.111       .  S
C793        H804   1.110       .  S
C793        H805   1.110       .  S
C795        H806   1.111       .  S
C795        H807   1.107       .  S
C795        H808   1.110       .  S
C809        C810   1.401       .  A
C809        C814   1.402       .  A
C809        H819   1.084       .  S
C810        C811   1.408       .  A
C810        C815   1.476       .  S
C811        C812   1.401       .  A
C811        C816   1.506       .  S
C812        C813   1.403       .  A
C812        H817   1.084       .  S
C813        C814   1.416       .  A
C814        C818   1.508       .  S
C815        C820   1.409       .  A
C815        C824   1.400       .  A
C816        H832   1.110       .  S
C816        H833   1.110       .  S
C816        H834   1.111       .  S
C818        H829   1.110       .  S
C818        H830   1.111       .  S
C818        H831   1.107       .  S
C820        C821   1.402       .  A
C820        C825   1.506       .  S
C821        C822   1.403       .  A
C821        H826   1.084       .  S
C822        C823   1.414       .  A
C823        C824   1.401       .  A
C823        C827   1.508       .  S
C824        H828   1.085       .  S
C825        H835   1.111       .  S
C825        H836   1.110       .  S
C825        H837   1.110       .  S
C827        H838   1.110       .  S
C827        H839   1.107       .  S
C827        H840   1.110       .  S
C841        C842   1.401       .  A
C841        C846   1.402       .  A
C841        H851   1.084       .  S
C842        C843   1.409       .  A
C842        C847   1.474       .  S
C843        C844   1.399       .  A
C843        C848   1.507       .  S
C844        C845   1.404       .  A
C844        H849   1.084       .  S
C845        C846   1.415       .  A
C846        C850   1.508       .  S
C847        C852   1.409       .  A
C847        C856   1.399       .  A
C848        H864   1.110       .  S
C848        H865   1.109       .  S
C848        H866   1.111       .  S
C850        H861   1.110       .  S
C850        H862   1.111       .  S
C850        H863   1.107       .  S
C852        C853   1.403       .  A
C852        C857   1.506       .  S
C853        C854   1.405       .  A
C853        H858   1.084       .  S
C854        C855   1.417       .  A
C855        C856   1.400       .  A
C855        C859   1.509       .  S
C856        H860   1.085       .  S
C857        H867   1.111       .  S
C857        H868   1.110       .  S
C857        H869   1.109       .  S
C859        H870   1.110       .  S
C859        H871   1.107       .  S
C859        H872   1.111       .  S
C873        C874   1.402       .  A
C873        C878   1.403       .  A
C873        H883   1.084       .  S
C874        C875   1.412       .  A
C874        C879   1.484       .  S
C875        C876   1.403       .  A
C875        C880   1.507       .  S
C876        C877   1.404       .  A
C876        H881   1.084       .  S
C877        C878   1.418       .  A
C878        C882   1.509       .  S
C879        C884   1.415       .  A
C879        C888   1.403       .  A
C880        H896   1.109       .  S
C880        H897   1.110       .  S
C880        H898   1.111       .  S
C882        H893   1.111       .  S
C882        H894   1.106       .  S
C882        H895   1.110       .  S
C884        C885   1.403       .  A
C884        C889   1.508       .  S
C885        C886   1.401       .  A
C885        H890   1.084       .  S
C886        C887   1.411       .  A
C887        C888   1.404       .  A
C887        C891   1.506       .  S
C888        H892   1.084       .  S
C889        H899   1.111   1_556  S
C889        H900   1.109       .  S
C889        H901   1.110       .  S
C891        H902   1.111       .  S
C891        H903   1.110       .  S
C891        H904   1.109       .  S
C905        C906   1.401       .  A
C905        C910   1.403       .  A
C905        H915   1.085       .  S
C906        C907   1.410       .  A
C906        C911   1.479       .  S
C907        C908   1.402       .  A
C907        C912   1.507       .  S
C908        C909   1.405       .  A
C908        H913   1.084       .  S
C909        C910   1.417       .  A
C910        C914   1.507       .  S
C911        C916   1.411       .  A
C911        C920   1.401       .  A
C912        H928   1.110       .  S
C912        H929   1.108       .  S
C912        H930   1.111       .  S
C914        H925   1.110       .  S
C914        H926   1.111       .  S
C914        H927   1.107       .  S
C916        C917   1.402       .  A
C916        C921   1.508       .  S
C917        C918   1.405       .  A
C917        H922   1.084       .  S
C918        C919   1.418       .  A
C919        C920   1.403       .  A
C919        C923   1.508       .  S
C920        H924   1.085       .  S
C921        H931   1.111       .  S
C921        H932   1.110       .  S
C921        H933   1.108       .  S
C923        H934   1.111       .  S
C923        H935   1.107       .  S
C923        H936   1.110       .  S
C937        C938   1.401       .  A
C937        C942   1.402       .  A
C937        H947   1.085       .  S
C938        C939   1.412       .  A
C938        C943   1.482       .  S
C939        C940   1.405       .  A
C939        C944   1.506       .  S
C940        C941   1.402       .  A
C940        H945   1.084       .  S
C941        C942   1.414       .  A
C942        C946   1.507       .  S
C943        C948   1.411       .  A
C943        C952   1.400       .  A
C944        H960   1.110       .  S
C944        H961   1.110       .  S
C944        H962   1.111       .  S
C946        H957   1.110       .  S
C946        H958   1.110       .  S
C946        H959   1.108       .  S
C948        C949   1.406       .  A
C948        C953   1.506       .  S
C949        C950   1.405       .  A
C949        H954   1.084       .  S
C950        C951   1.417       .  A
C951        C952   1.403       .  A
C951        C955   1.508   1_554  S
C952        H956   1.085       .  S
C953        H963   1.111       .  S
C953        H964   1.110       .  S
C953        H965   1.110       .  S
C955        H966   1.110       .  S
C955        H967   1.106       .  S
C955        H968   1.111       .  S
C969        C970   1.401       .  A
C969        C974   1.403       .  A
C969        H979   1.085       .  S
C970        C971   1.410       .  A
C970        C975   1.480       .  S
C971        C972   1.401       .  A
C971        C976   1.507       .  S
C972        C973   1.406       .  A
C972        H977   1.084       .  S
C973        C974   1.419       .  A
C974        C978   1.509       .  S
C975        C980   1.412       .  A
C975        C984   1.400       .  A
C976        H992   1.109       .  S
C976        H993   1.110       .  S
C976        H994   1.111       .  S
C978        H989   1.111       .  S
C978        H990   1.110       .  S
C978        H991   1.105       .  S
C980        C981   1.403       .  A
C980        C985   1.507       .  S
C981        C982   1.404       .  A
C981        H986   1.084       .  S
C982        C983   1.417       .  A
C983        C984   1.402       .  A
C983        C987   1.508       .  S
C984        H988   1.084       .  S
C985        H995   1.111       .  S
C985        H996   1.109       .  S
C985        H997   1.111       .  S
C987        H998   1.110       .  S
C987        H999   1.107       .  S
C987       H1000   1.111       .  S
C1001      C1002   1.400       .  A
C1001      C1006   1.402       .  A
C1001      H1011   1.084       .  S
C1002      C1003   1.411       .  A
C1002      C1007   1.480       .  S
C1003      C1004   1.406       .  A
C1003      C1008   1.505   1_556  S
C1004      C1005   1.404       .  A
C1004      H1009   1.084       .  S
C1005      C1006   1.413       .  A
C1006      C1010   1.506       .  S
C1007      C1012   1.411   1_556  A
C1007      C1016   1.402       .  A
C1008      H1024   1.110       .  S
C1008      H1025   1.110       .  S
C1008      H1026   1.111       .  S
C1010      H1021   1.111       .  S
C1010      H1022   1.108       .  S
C1010      H1023   1.110       .  S
C1012      C1013   1.401       .  A
C1012      C1017   1.507       .  S
C1013      C1014   1.402       .  A
C1013      H1018   1.084       .  S
C1014      C1015   1.415       .  A
C1015      C1016   1.407   1_554  A
C1015      C1019   1.507       .  S
C1016      H1020   1.084       .  S
C1017      H1027   1.111       .  S
C1017      H1028   1.110   1_554  S
C1017      H1029   1.110       .  S
C1019      H1030   1.111       .  S
C1019      H1031   1.110       .  S
C1019      H1032   1.109       .  S
