geometry optimzed in LAMMPS
_audit_creation_date              2020-11-30 
_audit_creation_method            'lammps2cif' 
_symmetry_space_group_name_H-M    'P1' 
_symmetry_Int_Tables_number       1 
_symmetry_cell_setting            triclinic 
loop_ 
_symmetry_equiv_pos_as_xyz 
  x,y,z 
_cell_length_a                    25.46141234 
_cell_length_b                    25.460918290467973 
_cell_length_c                    25.461365902232117 
_cell_angle_alpha                 89.99970777994102 
_cell_angle_beta                  90.0007001366678 
_cell_angle_gamma                 89.99965261467075 
loop_ 
_atom_site_label 
_atom_site_type_symbol 
_atom_site_fract_x 
_atom_site_fract_y 
_atom_site_fract_z 
_atom_site_charge 
C1          C  0.61837200  0.68452480  0.92176823     0.02600
C2          C  0.65021758  0.71668991  0.88882101    -0.13600
C3          C  0.70285683  0.70281680  0.87659714     0.00100
C4          C  0.71672776  0.65017584  0.88882173    -0.12100
C5          C  0.68456196  0.61833083  0.92176888     0.02600
C6          C  0.63417327  0.63413432  0.93381882    -0.11500
H7          H  0.63550036  0.75479474  0.87757600     0.08200
H8          H  0.75482967  0.63545759  0.87757800     0.05700
H9          H  0.61059820  0.61055953  0.96035542     0.05500
C10         C  0.87946522  0.68451629  0.66066530     0.02600
C11         C  0.89151314  0.63412534  0.67646475    -0.13600
C12         C  0.87946829  0.61832467  0.72685492     0.00100
C13         C  0.84652284  0.65017047  0.75902249    -0.12100
C14         C  0.83429611  0.70281079  0.74515117     0.02600
C15         C  0.84651930  0.71668283  0.69251135    -0.11500
H16         H  0.91804779  0.61054913  0.65288800     0.08200
H17         H  0.83528193  0.63545315  0.79712681     0.05700
H18         H  0.83527559  0.75478808  0.67779437     0.05500
C19         C  0.68455708  0.87941933  0.66066590     0.02600
C20         C  0.71672504  0.84647576  0.69251379    -0.13600
C21         C  0.70285481  0.83425468  0.74515407     0.00100
C22         C  0.65021543  0.84648106  0.75902544    -0.12100
C23         C  0.61836851  0.87942461  0.72685550     0.02600
C24         C  0.63416667  0.89146591  0.67646402    -0.11500
H25         H  0.75482903  0.83523338  0.67779802     0.08200
H26         H  0.63549981  0.83524188  0.79712955     0.05700
H27         H  0.61058950  0.91799919  0.65288528     0.05500
C28         C  0.72653526  0.79482589  0.83716405     0.01700
C29         C  0.74302022  0.74297850  0.85365094     0.01700
C30         C  0.79486433  0.72648902  0.83716103     0.01700
C31         C  0.81135002  0.74297387  0.78531429     0.01700
C32         C  0.79486421  0.79482131  0.76882937     0.01700
C33         C  0.74301954  0.81131155  0.78531722     0.01700
C34         C  0.33508142  0.33503355  0.87673537     0.02600
C35         C  0.38772804  0.32116792  0.88893720    -0.13600
C36         C  0.41959333  0.35335244  0.92184590     0.00100
C37         C  0.40379733  0.40374781  0.93387985    -0.12100
C38         C  0.35340296  0.41954510  0.92184659     0.02600
C39         C  0.32121798  0.38768113  0.88893718    -0.11500
H40         H  0.40244294  0.28306162  0.87770010     0.08200
H41         H  0.42738831  0.42733849  0.96038926     0.05700
H42         H  0.28311296  0.40239734  0.87769999     0.05500
C43         C  0.83442412  0.33501884  0.37738816     0.02600
C44         C  0.84662587  0.38766639  0.36352603    -0.13600
C45         C  0.87953288  0.41953007  0.39571317     0.00100
C46         C  0.89156426  0.40373182  0.44610789    -0.12100
C47         C  0.87953053  0.35333577  0.46190236     0.02600
C48         C  0.84662387  0.32115176  0.43003494    -0.11500
H49         H  0.83539074  0.40238279  0.32542047     0.08200
H50         H  0.91807206  0.42732231  0.46970037     0.05700
H51         H  0.83538712  0.28304422  0.44474849     0.05500
C52         C  0.33505478  0.83438597  0.37736941     0.02600
C53         C  0.32119035  0.84658225  0.43001715    -0.13600
C54         C  0.35337819  0.87948223  0.46188728     0.00100
C55         C  0.40377477  0.89151054  0.44609456    -0.12100
C56         C  0.41957058  0.87948265  0.39569874     0.02600
C57         C  0.38770235  0.84658371  0.36350786    -0.11500
H58         H  0.28308339  0.83534805  0.44473013     0.08200
H59         H  0.42736857  0.91801290  0.46968999     0.05700
H60         H  0.40241671  0.83535104  0.32540086     0.05500
C61         C  0.83512113  0.83507882  0.37659125     0.02600
C62         C  0.82125215  0.88772180  0.38880823    -0.13600
C63         C  0.85343204  0.91957575  0.42173422     0.00100
C64         C  0.90383067  0.90379130  0.43375167    -0.12100
C65         C  0.91961695  0.85339271  0.42173333     0.02600
C66         C  0.88776349  0.82121131  0.38880824    -0.11500
H67         H  0.78314518  0.90243601  0.37757847     0.08200
H68         H  0.92741860  0.92738011  0.46026614     0.05700
H69         H  0.90247855  0.78310233  0.37757832     0.05500
C70         C  0.83504049  0.83499548  0.74593133     0.02600
C71         C  0.82117854  0.88764375  0.73373340    -0.13600
C72         C  0.85337298  0.91951318  0.70083920     0.00100
C73         C  0.90377520  0.90373232  0.68883343    -0.12100
C74         C  0.91955677  0.85332893  0.70083820     0.02600
C75         C  0.88768775  0.82113260  0.73373188    -0.11500
H76         H  0.78306834  0.90235678  0.74495789     0.08200
H77         H  0.92737482  0.92733362  0.66234084     0.05700
H78         H  0.90240111  0.78302060  0.74495620     0.05500
C79         C  0.83514011  0.33424265  0.87743914     0.02600
C80         C  0.82127261  0.34646305  0.93008043    -0.13600
C81         C  0.85345012  0.37939551  0.96193020     0.00100
C82         C  0.90384587  0.39141988  0.94614149    -0.12100
C83         C  0.91963256  0.37939543  0.89574514     0.02600
C84         C  0.88778155  0.34646199  0.86356983    -0.11500
H85         H  0.78316710  0.33522967  0.94479665     0.08200
H86         H  0.92743094  0.41794000  0.96972560     0.05700
H87         H  0.90249727  0.33522703  0.82546375     0.05500
C88         C  0.83504102  0.70359117  0.87733548     0.02600
C89         C  0.88768834  0.69139340  0.86347231    -0.13600
C90         C  0.91955864  0.65849791  0.89566610     0.00100
C91         C  0.90377729  0.64648913  0.94606819    -0.12100
C92         C  0.85337587  0.65849659  0.96185185     0.02600
C93         C  0.82118044  0.69139251  0.92998352    -0.11500
H94         H  0.90240043  0.70261974  0.82536199     0.08200
H95         H  0.92737778  0.61999493  0.96966744     0.05700
H96         H  0.78307181  0.70261845  0.94469754     0.05500
C97         C  0.11838521  0.85345340  0.42178396     0.02600
C98         C  0.13417993  0.90384605  0.43382780    -0.13600
C99         C  0.18457216  0.91964552  0.42178945     0.00100
C100        C  0.21674286  0.88780040  0.38884724    -0.12100
C101        C  0.20287327  0.83515959  0.37662133     0.02600
C102        C  0.15023329  0.82128753  0.38883992    -0.11500
H103        H  0.11060027  0.92742139  0.46035941     0.08200
H104        H  0.25484694  0.90251851  0.37760995     0.05700
H105        H  0.13551833  0.78318223  0.37759600     0.05500
C106        C  0.18455220  0.91957908  0.70085617     0.02600
C107        C  0.13415936  0.90378474  0.68881699    -0.13600
C108        C  0.11836238  0.85338995  0.70085139     0.00100
C109        C  0.15021566  0.82121221  0.73378026    -0.12100
C110        C  0.20285740  0.83508237  0.74599914     0.02600
C111        C  0.21672408  0.88772582  0.73378886    -0.11500
H112        H  0.11057848  0.92737033  0.66229273     0.08200
H113        H  0.13550062  0.78310503  0.74501472     0.05700
H114        H  0.25482904  0.90244132  0.74503040     0.05500
O115        O  0.96058353  0.68900026  0.61287453    -0.80700
O116        O  0.07743750  0.68906307  0.50968694    -0.80700
O117        O  0.90621950  0.75624906  0.51198615    -0.80700
O118        O  0.13176382  0.75627140  0.61060111    -0.80700
O119        O  0.96059425  0.68902781  0.50965364    -0.80800
O120        O  0.07741644  0.68903015  0.61289494    -0.80700
O121        O  0.13178376  0.75630509  0.51202754    -0.80700
O122        O  0.90620335  0.75621609  0.61055695    -0.80700
C123        C  0.91538174  0.70897787  0.62251838     1.09000
C124        C  0.12262806  0.70906874  0.50004873     1.08900
C125        C  0.91539495  0.70901578  0.50001173     1.09000
C126        C  0.12260290  0.70902937  0.62256088     1.08900
O127        O  0.06825381  0.78169848  0.67408749    -0.80700
O128        O  0.96972348  0.78171210  0.44850377    -0.80800
O129        O  0.96735243  0.84890698  0.61972194    -0.80700
O130        O  0.07059227  0.84896899  0.50290308    -0.80700
O131        O  0.06829029  0.78174885  0.44852750    -0.80700
O132        O  0.96968397  0.78166326  0.67406805    -0.80700
O133        O  0.07056395  0.84893792  0.61973761    -0.80700
O134        O  0.96736979  0.84893360  0.50287707    -0.80700
Co135      Co  0.01898604  0.73489292  0.63634402     1.51500
Co136      Co  0.01901101  0.73492789  0.48622979     1.51700
Co137      Co  0.94392278  0.80303631  0.56128743     1.51600
Co138      Co  0.09403907  0.80307565  0.56131665     1.51500
O139        O  0.01898871  0.76898387  0.56129345    -1.42600
C140        C  0.08021265  0.82894107  0.66492942     1.08900
C141        C  0.95774745  0.82894606  0.45767338     1.09000
C142        C  0.95770930  0.82890029  0.66491159     1.08900
C143        C  0.08024391  0.82898884  0.45770388     1.08900
C144        C  0.41955675  0.68458573  0.92178152     0.02600
C145        C  0.38769289  0.71676998  0.88886937    -0.13600
C146        C  0.33504803  0.70290304  0.87666426     0.00100
C147        C  0.32118492  0.65025707  0.88887679    -0.12100
C148        C  0.35337506  0.61839646  0.92178665     0.02600
C149        C  0.40377326  0.63418674  0.93380257    -0.11500
H150        H  0.40240540  0.75487796  0.87763570     0.08200
H151        H  0.28307588  0.63553971  0.87764902     0.05700
H152        H  0.42736933  0.61059613  0.96030804     0.05500
C153        C  0.41955143  0.87943973  0.72691730     0.02600
C154        C  0.40376624  0.89145213  0.67651792    -0.13600
C155        C  0.35336707  0.87943458  0.66073182     0.00100
C156        C  0.32117749  0.84652946  0.69259629    -0.12100
C157        C  0.33504370  0.83432267  0.74524137     0.02600
C158        C  0.38768922  0.84653035  0.75910569    -0.11500
H159        H  0.42736134  0.91795504  0.65292329     0.08200
H160        H  0.28306866  0.83530293  0.67788351     0.05700
H161        H  0.40240378  0.83530089  0.79721342     0.05500
C162        C  0.24302856  0.79491767  0.76892528     0.01700
C163        C  0.29487334  0.81140814  0.78541317     0.01700
C164        C  0.31136132  0.79492256  0.83725962     0.01700
C165        C  0.29487682  0.74307393  0.85374573     0.01700
C166        C  0.24303290  0.72658368  0.83725531     0.01700
C167        C  0.22654677  0.74306993  0.78540908     0.01700
C168        C  0.20363087  0.70290056  0.74523699     0.02600
C169        C  0.19142365  0.71676813  0.69259206    -0.13600
C170        C  0.15850950  0.68458623  0.66072965     0.00100
C171        C  0.14647746  0.63418991  0.67652424    -0.12100
C172        C  0.15851099  0.61839310  0.72691882     0.02600
C173        C  0.19142545  0.65025424  0.75910170    -0.11500
H174        H  0.20265908  0.75487665  0.67787774     0.08200
H175        H  0.11996554  0.61060140  0.65293552     0.05700
H176        H  0.20266156  0.63553899  0.79720693     0.05500
O177        O  0.96968680  0.63173056  0.82399901    -0.80700
O178        O  0.06830783  0.40618652  0.82409107    -0.80700
O179        O  0.96738339  0.46054065  0.89127588    -0.80700
O180        O  0.07057236  0.57739779  0.89126946    -0.80700
O181        O  0.96973780  0.40615992  0.82406127    -0.80800
O182        O  0.06825960  0.63175046  0.82403319    -0.80700
O183        O  0.07061013  0.46056683  0.89130589    -0.80700
O184        O  0.96736101  0.57738420  0.89124161    -0.80700
C185        C  0.95771357  0.62257370  0.87123560     1.09000
C186        C  0.08026431  0.41536657  0.87132897     1.08900
C187        C  0.95776183  0.41533416  0.87129366     1.09000
C188        C  0.08022010  0.62259049  0.87127477     1.08900
O189        O  0.07741936  0.57055632  0.73136399    -0.80700
O190        O  0.96060139  0.46730299  0.73137156    -0.80800
O191        O  0.90621003  0.56821416  0.79855195    -0.80700
O192        O  0.13179541  0.46968814  0.79863723    -0.80700
O193        O  0.07744352  0.46734047  0.73140063    -0.80700
O194        O  0.96058797  0.57053301  0.73133687    -0.80700
O195        O  0.13176948  0.56826365  0.79860233    -0.80700
O196        O  0.90622952  0.46963953  0.79859216    -0.80700
Co197      Co  0.01899041  0.59400536  0.77722855     1.51500
Co198      Co  0.01902179  0.44388442  0.77727099     1.51700
Co199      Co  0.94393249  0.51894688  0.84537411     1.51600
Co200      Co  0.09405028  0.51897838  0.84540812     1.51500
O201        O  0.01899761  0.51895276  0.81132033    -1.42600
C202        C  0.12260634  0.58022295  0.75136144     1.08900
C203        C  0.91540418  0.45765890  0.75136129     1.09000
C204        C  0.91538650  0.58017621  0.75131455     1.08900
C205        C  0.12263618  0.45770429  0.75140330     1.08900
C206        C  0.11840991  0.37945018  0.89579464     0.02600
C207        C  0.13420470  0.39149408  0.94618637    -0.13600
C208        C  0.18459530  0.37945054  0.96198973     0.00100
C209        C  0.21676803  0.34651120  0.93014353    -0.12100
C210        C  0.20289898  0.33428827  0.87750270     0.02600
C211        C  0.15025829  0.34650555  0.86363065    -0.11500
H212        H  0.11062311  0.41802695  0.96976176     0.08200
H213        H  0.25487207  0.33527151  0.94486260     0.05700
H214        H  0.13554203  0.33525940  0.82552849     0.05500
C215        C  0.18456183  0.65850913  0.96191567     0.02600
C216        C  0.21673278  0.69144391  0.93006396    -0.13600
C217        C  0.20286496  0.70365610  0.87742066     0.00100
C218        C  0.15022344  0.69143931  0.86355045    -0.12100
C219        C  0.11837111  0.65850930  0.89572560     0.02600
C220        C  0.13416990  0.64646954  0.94611865    -0.11500
H221        H  0.25483563  0.70268708  0.94478108     0.08200
H222        H  0.13550748  0.70267641  0.82544448     0.05700
H223        H  0.11058934  0.61994365  0.96970217     0.05500
C224        C  0.33429177  0.83509249  0.87742531     0.02600
C225        C  0.34651107  0.82122638  0.93006754    -0.13600
C226        C  0.37943896  0.85340729  0.96191872     0.00100
C227        C  0.39145970  0.90380458  0.94613002    -0.12100
C228        C  0.37943843  0.91958914  0.89573215     0.02600
C229        C  0.34650939  0.88773528  0.86355504    -0.11500
H230        H  0.33527956  0.78311803  0.94478457     0.08200
H231        H  0.41797627  0.92739251  0.96971573     0.05700
H232        H  0.33527652  0.90244998  0.82544771     0.05500
C233        C  0.70363552  0.83500231  0.87733819     0.02600
C234        C  0.69143708  0.88765050  0.86347390    -0.13600
C235        C  0.65854115  0.91952067  0.89566668     0.00100
C236        C  0.64653417  0.90374046  0.94606891    -0.12100
C237        C  0.65853993  0.85333821  0.96185325     0.02600
C238        C  0.69143519  0.82114120  0.92998600    -0.11500
H239        H  0.70266242  0.90236247  0.82536455     0.08200
H240        H  0.62004001  0.92734275  0.96966804     0.05700
H241        H  0.70265990  0.78303118  0.94470075     0.05500
C242        C  0.15855073  0.68464233  0.46189074     0.02600
C243        C  0.19144564  0.71683836  0.43002179    -0.13600
C244        C  0.20365066  0.70297321  0.37737586     0.00100
C245        C  0.19145186  0.65032384  0.36351552    -0.12100
C246        C  0.15855274  0.61845563  0.39570811     0.02600
C247        C  0.14654089  0.63424035  0.44610709    -0.11500
H248        H  0.20266879  0.75495008  0.44473435     0.08200
H249        H  0.20268161  0.63560876  0.32540771     0.05700
H250        H  0.12004618  0.61063984  0.46970504     0.05500
C251        C  0.31137078  0.79499897  0.28534838     0.01700
C252        C  0.29488227  0.81148469  0.33719393     0.01700
C253        C  0.24303848  0.79499558  0.35368221     0.01700
C254        C  0.22655704  0.74314592  0.33719984     0.01700
C255        C  0.24304485  0.72665731  0.28535426     0.01700
C256        C  0.29488926  0.74315030  0.26886431     0.01700
C257        C  0.41958181  0.68465245  0.20085249     0.02600
C258        C  0.38771338  0.71684736  0.23374970    -0.13600
C259        C  0.33506723  0.70298117  0.24595593     0.00100
C260        C  0.32120745  0.65033246  0.23375795    -0.12100
C261        C  0.35339839  0.61846553  0.20085709     0.02600
C262        C  0.40379615  0.63425149  0.18884098    -0.11500
H263        H  0.40242692  0.75495773  0.24497484     0.08200
H264        H  0.28310080  0.63561693  0.24498959     0.05700
H265        H  0.42739302  0.61065094  0.16234339     0.05500
O266        O  0.18905797  0.46056862  0.00977864    -0.80700
O267        O  0.18905301  0.57740736  0.11296089    -0.80700
O268        O  0.25634072  0.40622504  0.11067162    -0.80700
O269        O  0.25625502  0.63177383  0.01203336    -0.80700
O270        O  0.18909558  0.46056621  0.11299493    -0.80800
O271        O  0.18903577  0.57740077  0.00973179    -0.80700
O272        O  0.25626349  0.63179395  0.11060423    -0.80700
O273        O  0.25628935  0.40620875  0.01209865    -0.80700
C274        C  0.20904863  0.41537244  0.00013690     1.09000
C275        C  0.20903082  0.62261656  0.12257819     1.08900
C276        C  0.20910486  0.41537962  0.12264724     1.09000
C277        C  0.20901811  0.62259733  0.00007211     1.08900
O278        O  0.28170829  0.56826330  0.94855303    -0.80700
O279        O  0.28178993  0.46974610  0.17414336    -0.80800
O280        O  0.34896358  0.46739697  0.00292911    -0.80700
O281        O  0.34895609  0.57065093  0.11975032    -0.80700
O282        O  0.28173419  0.56832196  0.17411922    -0.80700
O283        O  0.28172465  0.46968625  0.94858100    -0.80700
O284        O  0.34894095  0.57061398  0.00291051    -0.80700
O285        O  0.34900066  0.46742346  0.11975964    -0.80700
Co286      Co  0.23492712  0.51898090  0.98629783     1.51500
Co287      Co  0.23495963  0.51900808  0.13641830     1.51700
Co288      Co  0.30310311  0.44395089  0.06136173     1.51600
Co289      Co  0.30306353  0.59407156  0.06132673     1.51500
O290        O  0.26901276  0.51900388  0.06135207    -1.42600
C291        C  0.32894272  0.58024441  0.95771441     1.08900
C292        C  0.32902685  0.45778239  0.16496349     1.09000
C293        C  0.32896447  0.45772415  0.95774451     1.08900
C294        C  0.32896512  0.58030074  0.16494515     1.08900
O295        O  0.90626907  0.46967225  0.32403613    -0.80700
O296        O  0.13181068  0.56830906  0.32404737    -0.80700
O297        O  0.07744287  0.46741231  0.39131659    -0.80700
O298        O  0.96059912  0.57060035  0.39125319    -0.80700
O299        O  0.13182732  0.46973399  0.32410628    -0.80800
O300        O  0.90624313  0.56824830  0.32401864    -0.80700
O301        O  0.07744345  0.57064132  0.39127082    -0.80700
O302        O  0.96061418  0.46738334  0.39127732    -0.80700
C303        C  0.91543066  0.45771017  0.37127649     1.09000
C304        C  0.12263816  0.58029017  0.37127796     1.08900
C305        C  0.12264680  0.45777171  0.37134345     1.09000
C306        C  0.91540321  0.58022972  0.37125315     1.08900
O307        O  0.96742502  0.57738510  0.23134869    -0.80700
O308        O  0.07067917  0.46055635  0.23141124    -0.80800
O309        O  0.96978620  0.40619414  0.29860302    -0.80700
O310        O  0.06829531  0.63178256  0.29857929    -0.80700
O311        O  0.07065402  0.57739774  0.23136715    -0.80700
O312        O  0.96746952  0.46055347  0.23137111    -0.80700
O313        O  0.96972465  0.63175855  0.29856825    -0.80700
O314        O  0.06835799  0.40621289  0.29865485    -0.80700
Co315      Co  0.94398828  0.51896616  0.27723927     1.51500
Co316      Co  0.09410647  0.51899628  0.27727447     1.51700
Co317      Co  0.01904764  0.44393777  0.34541779     1.51600
Co318      Co  0.01901726  0.59405868  0.34537794     1.51500
O319        O  0.01904084  0.51899104  0.31132742    -1.42600
C320        C  0.95776624  0.62258207  0.25133061     1.08900
C321        C  0.08033220  0.41536934  0.25141875     1.09000
C322        C  0.95782747  0.41535728  0.25136128     1.08900
C323        C  0.08027034  0.62260676  0.25134654     1.08900
C324        C  0.11849411  0.37945139  0.22699132     0.02600
C325        C  0.15036638  0.34656112  0.25918771    -0.13600
C326        C  0.20301593  0.33437002  0.24532799     0.00100
C327        C  0.21687767  0.34656803  0.19268018    -0.12100
C328        C  0.18467998  0.37945829  0.16080861     0.02600
C329        C  0.13427721  0.39146199  0.17659033    -0.11500
H330        H  0.13565272  0.33533297  0.29729608     0.08200
H331        H  0.25498796  0.33534371  0.17796698     0.05700
H332        H  0.11067449  0.41795296  0.15298877     0.05500
C333        C  0.85349222  0.37943978  0.16071555     0.02600
C334        C  0.82132469  0.34649648  0.19256271    -0.13600
C335        C  0.83519477  0.33427604  0.24520391     0.00100
C336        C  0.88783546  0.34649581  0.25907480    -0.12100
C337        C  0.91968393  0.37943445  0.22690434     0.02600
C338        C  0.90388425  0.39147918  0.17651257    -0.11500
H339        H  0.78322175  0.33525341  0.17784512     0.08200
H340        H  0.90255242  0.33525535  0.29717965     0.05700
H341        H  0.92746186  0.41801014  0.15293307     0.05500
C342        C  0.91961467  0.65849617  0.22687150     0.02600
C343        C  0.90382326  0.64645924  0.17647722    -0.13600
C344        C  0.85343266  0.65850161  0.16067357     0.00100
C345        C  0.82125513  0.69143194  0.19252401    -0.12100
C346        C  0.83512051  0.70364685  0.24516774     0.02600
C347        C  0.88776149  0.69143157  0.25904018    -0.11500
H348        H  0.92740818  0.61993361  0.15289850     0.08200
H349        H  0.78315194  0.70267085  0.17780481     0.05700
H350        H  0.90247578  0.70267340  0.29714515     0.05500
O351        O  0.68904717  0.57053308  0.00288397    -0.80700
O352        O  0.68910752  0.46733887  0.11974315    -0.80700
O353        O  0.75629924  0.46963950  0.94852768    -0.80700
O354        O  0.75630827  0.56826218  0.17406490    -0.80700
O355        O  0.68908027  0.46730667  0.00290163    -0.80800
O356        O  0.68907305  0.57055444  0.11971129    -0.80700
O357        O  0.75634344  0.46968522  0.17409564    -0.80700
O358        O  0.75626036  0.56821507  0.94850456    -0.80700
C359        C  0.70902334  0.58017862  0.95768274     1.09000
C360        C  0.70910952  0.45770235  0.16493623     1.08900
C361        C  0.70906798  0.45766186  0.95770388     1.09000
C362        C  0.70906788  0.58022212  0.16489876     1.08900
O363        O  0.78174460  0.63174676  0.11055513    -0.80700
O364        O  0.78176791  0.40616002  0.01203643    -0.80800
O365        O  0.84895293  0.57738249  0.00965515    -0.80700
O366        O  0.84901215  0.46055806  0.11291399    -0.80700
O367        O  0.78179457  0.40618151  0.11060729    -0.80700
O368        O  0.78171096  0.63172879  0.01198249    -0.80700
O369        O  0.84897889  0.57739179  0.11287078    -0.80700
O370        O  0.84898319  0.46053980  0.00968189    -0.80700
Co371      Co  0.73493969  0.59400368  0.06128549     1.51500
Co372      Co  0.73497802  0.44388367  0.06132074     1.51700
Co373      Co  0.80308277  0.51894608  0.98622876     1.51600
Co374      Co  0.80311543  0.51897406  0.13634944     1.51500
O375        O  0.76902991  0.51895063  0.06129513    -1.42600
C376        C  0.82898496  0.62258504  0.12251826     1.08900
C377        C  0.82900034  0.41533369  0.00006058     1.09000
C378        C  0.82894701  0.62257199  0.00000795     1.08900
C379        C  0.82903190  0.41535868  0.12256744     1.08900
C380        C  0.68461675  0.87942504  0.46185906     0.02600
C381        C  0.71680250  0.84651667  0.42999386    -0.13600
C382        C  0.70293568  0.83431158  0.37734871     0.00100
C383        C  0.65028977  0.84652105  0.36348549    -0.12100
C384        C  0.61842678  0.87942474  0.39567922     0.02600
C385        C  0.63421617  0.89143817  0.44607827    -0.11500
H386        H  0.75491194  0.83528652  0.44470604     0.08200
H387        H  0.63557476  0.83529687  0.32537569     0.05700
H388        H  0.61062309  0.91793989  0.46967697     0.05500
C389        C  0.87947298  0.68457352  0.46186128     0.02600
C390        C  0.84656225  0.71675821  0.42999626    -0.13600
C391        C  0.83435585  0.70289014  0.37735179     0.00100
C392        C  0.84656695  0.65024332  0.36348988    -0.12100
C393        C  0.87947428  0.61838198  0.39568290     0.02600
C394        C  0.89148895  0.63417276  0.44608105    -0.11500
H395        H  0.83533121  0.75486754  0.44470754     0.08200
H396        H  0.83534114  0.63552672  0.32538130     0.05700
H397        H  0.91799270  0.61058103  0.46967923     0.05500
C398        C  0.72662247  0.79491296  0.28533011     0.01700
C399        C  0.74310745  0.81139773  0.33717726     0.01700
C400        C  0.79495313  0.79490982  0.35366520     0.01700
C401        C  0.81143887  0.74306180  0.33717982     0.01700
C402        C  0.79495287  0.72657609  0.28533308     0.01700
C403        C  0.74310885  0.74306674  0.26884334     0.01700
C404        C  0.70293811  0.70289886  0.24592436     0.02600
C405        C  0.65029361  0.71676706  0.23371737    -0.13600
C406        C  0.61843268  0.68458767  0.20079991     0.00100
C407        C  0.63422969  0.63419312  0.18876172    -0.12100
C408        C  0.68462279  0.61839390  0.20079995     0.02600
C409        C  0.71680285  0.65025296  0.23371823    -0.11500
H410        H  0.63557856  0.75487302  0.24495636     0.08200
H411        H  0.61064315  0.61060710  0.16224611     0.05700
H412        H  0.75490710  0.63553575  0.24495792     0.05500
O413        O  0.63177017  0.78167370  0.01198349    -0.80700
O414        O  0.40622585  0.78176104  0.11059653    -0.80700
O415        O  0.46058138  0.84894641  0.00967365    -0.80700
O416        O  0.57743596  0.84894593  0.11286665    -0.80700
O417        O  0.40620568  0.78172724  0.01202767    -0.80800
O418        O  0.63178717  0.78170784  0.11055435    -0.80700
O419        O  0.46060129  0.84898057  0.11290334    -0.80700
O420        O  0.57742516  0.84891776  0.00965245    -0.80700
C421        C  0.62261423  0.82891058  0.00000804     1.09000
C422        C  0.41540209  0.82899979  0.12255471     1.08900
C423        C  0.41537717  0.82896064  0.00005111     1.09000
C424        C  0.62262771  0.82894965  0.12251567     1.08900
O425        O  0.57059287  0.68903806  0.11971148    -0.80700
O426        O  0.46735393  0.68904147  0.00289907    -0.80800
O427        O  0.56825918  0.75622561  0.94850241    -0.80700
O428        O  0.46972625  0.75631344  0.17409003    -0.80700
O429        O  0.46738351  0.68907391  0.11974144    -0.80700
O430        O  0.57057509  0.68901051  0.00288261    -0.80700
O431        O  0.56830179  0.75627541  0.17406337    -0.80700
O432        O  0.46968618  0.75626079  0.94852217    -0.80700
Co433      Co  0.59404433  0.73490303  0.06128499     1.51500
Co434      Co  0.44392906  0.73494119  0.06131527     1.51700
Co435      Co  0.51898961  0.80304736  0.98622400     1.51600
Co436      Co  0.51901620  0.80308367  0.13634377     1.51500
O437        O  0.51899364  0.76899509  0.06129096    -1.42600
C438        C  0.58026101  0.70903377  0.16489855     1.08900
C439        C  0.45771064  0.70902811  0.95769966     1.09000
C440        C  0.58022147  0.70898739  0.95768141     1.08900
C441        C  0.45774406  0.70907829  0.16493241     1.08900
C442        C  0.37948119  0.85346123  0.16069914     0.02600
C443        C  0.39152285  0.90385275  0.17649801    -0.13600
C444        C  0.37947909  0.91965034  0.22688991     0.00100
C445        C  0.34653535  0.88780379  0.25905697    -0.12100
C446        C  0.33431180  0.83516379  0.24518460     0.02600
C447        C  0.34653422  0.82129411  0.19254381    -0.11500
H448        H  0.41805690  0.92743031  0.15292075     0.08200
H449        H  0.33529532  0.90252004  0.29716142     0.05700
H450        H  0.33529025  0.78319023  0.17782541     0.05500
C451        C  0.65854338  0.91957741  0.22686887     0.02600
C452        C  0.69147923  0.88772310  0.25903677    -0.13600
C453        C  0.70369359  0.83508163  0.24516385     0.00100
C454        C  0.69147681  0.82121726  0.19252016    -0.12100
C455        C  0.65854610  0.85339636  0.16067017     0.02600
C456        C  0.64650574  0.90378788  0.17647412    -0.11500
H457        H  0.70272081  0.90243583  0.29714200     0.08200
H458        H  0.70271457  0.78311211  0.17780068     0.05700
H459        H  0.61998008  0.92737398  0.15289618     0.05500
C460        C  0.68468260  0.41954237  0.20085900     0.02600
C461        C  0.63428355  0.40375407  0.18884563    -0.13600
C462        C  0.61850001  0.35335458  0.20086290     0.00100
C463        C  0.65036638  0.32116573  0.23376764    -0.12100
C464        C  0.70301273  0.33502924  0.24596875     0.02600
C465        C  0.71687644  0.38767665  0.23376096    -0.11500
H466        H  0.61068439  0.42734881  0.16234548     0.08200
H467        H  0.63565294  0.28305711  0.24499948     0.05700
H468        H  0.75498470  0.40239186  0.24498693     0.05500
C469        C  0.74318347  0.29485367  0.26887999     0.01700
C470        C  0.79502948  0.31133905  0.28536779     0.01700
C471        C  0.81151598  0.29484906  0.33721317     0.01700
C472        C  0.79502989  0.24300271  0.35369839     0.01700
C473        C  0.74318285  0.22651813  0.33721235     0.01700
C474        C  0.72669515  0.24300612  0.28536642     0.01700
C475        C  0.68467818  0.15850900  0.46189971     0.02600
C476        C  0.63427778  0.14649807  0.44611398    -0.13600
C477        C  0.61849477  0.15850937  0.39571400     0.00100
C478        C  0.65036232  0.19141075  0.36352289    -0.12100
C479        C  0.70300982  0.20361105  0.37738604     0.02600
C480        C  0.71687363  0.19140573  0.43003226    -0.11500
H481        H  0.61067746  0.12000092  0.46971137     0.08200
H482        H  0.63564881  0.20264027  0.32541431     0.05700
H483        H  0.75498443  0.20262877  0.44474564     0.05500
O484        O  0.46060304  0.96742608  0.23136366    -0.80700
O485        O  0.57744648  0.07061004  0.23137073    -0.80700
O486        O  0.40626216  0.06831128  0.29865153    -0.80700
O487        O  0.63180296  0.96967943  0.29856916    -0.80700
O488        O  0.46060539  0.07063521  0.23140918    -0.80800
O489        O  0.57743178  0.96738380  0.23134739    -0.80700
O490        O  0.63182792  0.06825045  0.29858591    -0.80700
O491        O  0.40624404  0.96974066  0.29859427    -0.80700
C492        C  0.41540658  0.95778605  0.25135183     1.09000
C493        C  0.62265398  0.08022613  0.25135273     1.08900
C494        C  0.41541839  0.08028573  0.25141570     1.09000
C495        C  0.62262790  0.95772507  0.25133017     1.08900
O496        O  0.56829380  0.90619535  0.32401453    -0.80700
O497        O  0.46978106  0.13178174  0.32410428    -0.80800
O498        O  0.46742896  0.96056181  0.39127034    -0.80700
O499        O  0.57068552  0.07739559  0.39127385    -0.80700
O500        O  0.56835382  0.13176536  0.32405030    -0.80700
O501        O  0.46971881  0.90621951  0.32402686    -0.80700
O502        O  0.57064297  0.96054865  0.39125135    -0.80700
O503        O  0.46745658  0.07739462  0.39131460    -0.80700
Co504      Co  0.51901339  0.94394282  0.27723438     1.51500
Co505      Co  0.51904379  0.09406174  0.27727459     1.51700
Co506      Co  0.44398529  0.01899931  0.34541328     1.51600
Co507      Co  0.59410292  0.01896984  0.34538012     1.51500
O508        O  0.51903764  0.01899450  0.31132616    -1.42600
C509        C  0.58027381  0.91535343  0.37124986     1.08900
C510        C  0.45781746  0.12260013  0.37134088     1.09000
C511        C  0.45775463  0.91537914  0.37126675     1.08900
C512        C  0.58033315  0.12259212  0.37128155     1.08900
O513        O  0.46973401  0.28167195  0.94858125    -0.80700
O514        O  0.56836320  0.28168552  0.17412286    -0.80700
O515        O  0.46746849  0.34895073  0.11975971    -0.80700
O516        O  0.57065664  0.34888853  0.00291036    -0.80700
O517        O  0.46978991  0.28173770  0.17414377    -0.80800
O518        O  0.56830915  0.28165238  0.94855661    -0.80700
O519        O  0.57069204  0.34890848  0.11975180    -0.80700
O520        O  0.46744586  0.34891279  0.00292777    -0.80700
C521        C  0.45777256  0.32891299  0.95774359     1.09000
C522        C  0.58034002  0.32891795  0.16494814     1.08900
C523        C  0.45782708  0.32897576  0.16496351     1.09000
C524        C  0.58028971  0.32888792  0.95771626     1.08900
O525        O  0.57744445  0.18898124  0.00974053    -0.80700
O526        O  0.46061152  0.18904430  0.11299521    -0.80800
O527        O  0.40625612  0.25623909  0.01209759    -0.80700
O528        O  0.63183655  0.25621844  0.11061063    -0.80700
O529        O  0.57745426  0.18900379  0.11296704    -0.80700
O530        O  0.46061285  0.18900461  0.00978136    -0.80700
O531        O  0.63181649  0.25620226  0.01204149    -0.80700
O532        O  0.40627136  0.25629130  0.11066868    -0.80700
Co533      Co  0.51902615  0.23487301  0.98630184     1.51500
Co534      Co  0.51905250  0.23490848  0.13642092     1.51700
Co535      Co  0.44399771  0.30305333  0.06136058     1.51600
Co536      Co  0.59411385  0.30301432  0.06133021     1.51500
O537        O  0.51904857  0.26896158  0.06135450    -1.42600
C538        C  0.62264066  0.20896383  0.00008234     1.08900
C539        C  0.41542530  0.20905461  0.12264490     1.09000
C540        C  0.41541818  0.20899699  0.00013760     1.08900
C541        C  0.62266160  0.20898479  0.12258526     1.08900
C542        C  0.37950292  0.18463042  0.16080459     0.02600
C543        C  0.34661330  0.21682919  0.19267558    -0.13600
C544        C  0.33441431  0.20296625  0.24532323     0.00100
C545        C  0.34660691  0.15031586  0.25918313    -0.12100
C546        C  0.37949758  0.11844431  0.22698734     0.02600
C547        C  0.39150558  0.13422642  0.17658585    -0.11500
H548        H  0.33538994  0.25494051  0.17796240     0.08200
H549        H  0.33537998  0.13560147  0.29729151     0.05700
H550        H  0.41799481  0.11062356  0.15298517     0.05500
C551        C  0.37949454  0.11836051  0.89579297     0.02600
C552        C  0.34654912  0.15020996  0.86363042    -0.13600
C553        C  0.33433220  0.20285057  0.87750366     0.00100
C554        C  0.34655602  0.21671852  0.93014488    -0.12100
C555        C  0.37949595  0.18454406  0.96199023     0.02600
C556        C  0.39153930  0.13415324  0.94618542    -0.11500
H557        H  0.33530303  0.13549530  0.82552744     0.08200
H558        H  0.33531727  0.25482172  0.94486395     0.05700
H559        H  0.41807249  0.11057092  0.96975937     0.05500
C560        C  0.65855369  0.18450611  0.96192904     0.02600
C561        C  0.64651153  0.13411456  0.94612991    -0.13600
C562        C  0.65855233  0.11831745  0.89573705     0.00100
C563        C  0.69148764  0.15016789  0.86356595    -0.12100
C564        C  0.70370739  0.20280874  0.87743773     0.02600
C565        C  0.69149259  0.21667625  0.93008028    -0.11500
H566        H  0.61998274  0.11053491  0.96970998     0.08200
H567        H  0.70272521  0.13545258  0.82546063     0.05700
H568        H  0.70273683  0.25478041  0.94479847     0.05500
O569        O  0.57058014  0.96054812  0.73133419    -0.80700
O570        O  0.46738811  0.07740702  0.73139748    -0.80700
O571        O  0.46968581  0.90618724  0.79858508    -0.80700
O572        O  0.56830756  0.13173073  0.79860661    -0.80700
O573        O  0.46734869  0.96056103  0.73136379    -0.80800
O574        O  0.57060148  0.07738363  0.73136584    -0.80700
O575        O  0.46973347  0.13175590  0.79863663    -0.80700
O576        O  0.56825792  0.90616807  0.79854973    -0.80700
C577        C  0.58022153  0.91534513  0.75131293     1.09000
C578        C  0.45775103  0.12259914  0.75140192     1.08900
C579        C  0.45770672  0.91536192  0.75135356     1.09000
C580        C  0.58026900  0.12256972  0.75136612     1.08900
O581        O  0.63179070  0.06821756  0.82403804    -0.80700
O582        O  0.40620496  0.96969523  0.82404977    -0.80800
O583        O  0.57742543  0.96731805  0.89123914    -0.80700
O584        O  0.46061069  0.07056360  0.89130233    -0.80700
O585        O  0.40623269  0.06826599  0.82408540    -0.80700
O586        O  0.63177200  0.96964588  0.82399819    -0.80700
O587        O  0.57743739  0.07052719  0.89127222    -0.80700
O588        O  0.46058245  0.96734012  0.89126735    -0.80700
Co589      Co  0.59404868  0.01895100  0.77722844     1.51500
Co590      Co  0.44393051  0.01898180  0.77726388     1.51700
Co591      Co  0.51899006  0.94388996  0.84536937     1.51600
Co592      Co  0.51902142  0.09400782  0.84540810     1.51500
O593        O  0.51899665  0.01895631  0.81131643    -1.42600
C594        C  0.62263041  0.08017356  0.87128036     1.08900
C595        C  0.41537744  0.95771871  0.87128256     1.09000
C596        C  0.62261498  0.95767261  0.87123445     1.08900
C597        C  0.41541153  0.08021840  0.87132470     1.08900
C598        C  0.68462960  0.41950379  0.92178731     0.02600
C599        C  0.63423151  0.40371894  0.93380562    -0.13600
C600        C  0.61844390  0.35331894  0.92179092     0.00100
C601        C  0.65030710  0.32112721  0.88888582    -0.12100
C602        C  0.70295243  0.33499248  0.87667585     0.02600
C603        C  0.71681594  0.38763921  0.88887925    -0.11500
H604        H  0.61063955  0.42731558  0.96030702     0.08200
H605        H  0.63559190  0.28301810  0.87765906     0.05700
H606        H  0.75492373  0.40235377  0.87764655     0.05500
C607        C  0.87948623  0.41949885  0.72692657     0.02600
C608        C  0.84657883  0.38763607  0.75911612    -0.13600
C609        C  0.83437371  0.33498850  0.74525447     0.00100
C610        C  0.84658042  0.32112083  0.69260995    -0.12100
C611        C  0.87948373  0.35331075  0.66074407     0.02600
C612        C  0.89150062  0.40371138  0.67652863    -0.11500
H613        H  0.83534854  0.40235194  0.79722161     0.08200
H614        H  0.83535358  0.28301065  0.67789774     0.05700
H615        H  0.91800195  0.42730670  0.65293366     0.05500
C616        C  0.79497245  0.24297169  0.76894352     0.01700
C617        C  0.81146004  0.29481881  0.78542848     0.01700
C618        C  0.79497237  0.31130926  0.83727346     0.01700
C619        C  0.74312545  0.29482216  0.85376023     0.01700
C620        C  0.72663875  0.24297595  0.83727271     0.01700
C621        C  0.74312585  0.22648901  0.78542743     0.01700
C622        C  0.70295507  0.20358013  0.74525323     0.02600
C623        C  0.65030831  0.19137941  0.75911555    -0.13600
C624        C  0.61844315  0.15847315  0.72692853     0.00100
C625        C  0.63423845  0.14644302  0.67653312    -0.12100
C626        C  0.68463585  0.15846869  0.66074164     0.02600
C627        C  0.71682168  0.19137575  0.69260762    -0.11500
H628        H  0.63559382  0.20261358  0.79722280     0.08200
H629        H  0.61064665  0.11993672  0.65294082     0.05700
H630        H  0.75492885  0.20260757  0.67789540     0.05500
O631        O  0.78170529  0.96963658  0.67406944    -0.80700
O632        O  0.78178534  0.06824967  0.44853267    -0.80700
O633        O  0.84897151  0.96732506  0.50287952    -0.80700
O634        O  0.84897897  0.07051921  0.61974112    -0.80700
O635        O  0.78175106  0.96968046  0.44850553    -0.80800
O636        O  0.78174288  0.06820701  0.67409255    -0.80700
O637        O  0.84900476  0.07054874  0.50290846    -0.80700
O638        O  0.84894586  0.96730740  0.61972220    -0.80700
C639        C  0.82894156  0.95766384  0.66491220     1.09000
C640        C  0.82902474  0.08020209  0.45770949     1.08900
C641        C  0.82898435  0.95770425  0.45767536     1.09000
C642        C  0.82898483  0.08016447  0.66493420     1.08900
O643        O  0.68907264  0.07737580  0.61290410    -0.80700
O644        O  0.68906777  0.96054690  0.50965337    -0.80800
O645        O  0.75625458  0.90615814  0.61055806    -0.80700
O646        O  0.75634126  0.13174045  0.51203438    -0.80700
O647        O  0.68910144  0.07739185  0.50969243    -0.80700
O648        O  0.68904090  0.96054076  0.61287784    -0.80700
O649        O  0.75631470  0.13172121  0.61060849    -0.80700
O650        O  0.75628898  0.90617312  0.51198699    -0.80700
Co651      Co  0.73493485  0.01894158  0.63634867     1.51500
Co652      Co  0.73496652  0.01896695  0.48623283     1.51700
Co653      Co  0.80307470  0.94387740  0.56128908     1.51600
Co654      Co  0.80311424  0.09399553  0.56132187     1.51500
O655        O  0.76902252  0.01894434  0.56129713    -1.42600
C656        C  0.70907412  0.12256181  0.62257047     1.08900
C657        C  0.70905663  0.91534765  0.50001106     1.09000
C658        C  0.70901761  0.91533727  0.62251975     1.08900
C659        C  0.70910550  0.12258425  0.50005618     1.08900
C660        C  0.85348955  0.11834408  0.42179066     0.02600
C661        C  0.82132367  0.15019533  0.38884942    -0.13600
C662        C  0.83519535  0.20283678  0.37663424     0.00100
C663        C  0.88783608  0.21670504  0.38885938    -0.12100
C664        C  0.91968270  0.18452984  0.42179726     0.02600
C665        C  0.90388229  0.13413646  0.43383368    -0.11500
H666        H  0.78321909  0.13548156  0.37760568     0.08200
H667        H  0.90255446  0.25481131  0.37762326     0.05700
H668        H  0.92745795  0.11055323  0.46036326     0.05500
C669        C  0.91962872  0.18449550  0.70086584     0.02600
C670        C  0.88777850  0.21666783  0.73380109    -0.13600
C671        C  0.83513601  0.20280126  0.74601391     0.00100
C672        C  0.82126419  0.15015994  0.73379278    -0.12100
C673        C  0.85343777  0.11830789  0.70086008     0.02600
C674        C  0.90383215  0.13410292  0.68882576    -0.11500
H675        H  0.90249496  0.25477238  0.74504278     0.08200
H676        H  0.78315728  0.13544520  0.74502751     0.05700
H677        H  0.92741449  0.11052221  0.66230009     0.05500
C678        C  0.41958790  0.15852060  0.72697865     0.02600
C679        C  0.40379537  0.14650680  0.67658091    -0.13600
C680        C  0.35339295  0.15851574  0.66080366     0.00100
C681        C  0.32120446  0.19141654  0.69267382    -0.12100
C682        C  0.33507371  0.20361900  0.74531896     0.02600
C683        C  0.38772243  0.19141672  0.75917716    -0.11500
H684        H  0.42739107  0.12000951  0.65297790     0.08200
H685        H  0.28309432  0.20264367  0.67796473     0.05700
H686        H  0.40243953  0.20264145  0.79728557     0.05500
C687        C  0.24306225  0.31134969  0.83733811     0.01700
C688        C  0.29490859  0.29486233  0.85382403     0.01700
C689        C  0.31139415  0.24301520  0.83733888     0.01700
C690        C  0.29490297  0.22652515  0.78549505     0.01700
C691        C  0.24305459  0.24300846  0.76901159     0.01700
C692        C  0.22657091  0.29485770  0.78549477     0.01700
O693        O  0.28170360  0.90621920  0.51203348    -0.80700
O694        O  0.28172474  0.13176926  0.61066945    -0.80700
O695        O  0.34898750  0.07739521  0.50977402    -0.80700
O696        O  0.34892986  0.96055757  0.61295114    -0.80700
O697        O  0.28177694  0.13178274  0.51209644    -0.80800
O698        O  0.28169525  0.90620150  0.61060775    -0.80700
O699        O  0.34894968  0.07740123  0.61299760    -0.80700
O700        O  0.34894621  0.96056233  0.50974399    -0.80700
C701        C  0.32894349  0.91537930  0.50006952     1.09000
C702        C  0.32895704  0.12259728  0.62264582     1.08900
C703        C  0.32901395  0.12260074  0.50013469     1.09000
C704        C  0.32893149  0.91536167  0.62258279     1.08900
O705        O  0.18902574  0.96738766  0.61974642    -0.80700
O706        O  0.18908321  0.07063679  0.50292067    -0.80800
O707        O  0.25627134  0.96974026  0.44855877    -0.80700
O708        O  0.25626626  0.06825291  0.67414436    -0.80700
O709        O  0.18904705  0.07061428  0.61976726    -0.80700
O710        O  0.18903878  0.96742236  0.50291544    -0.80700
O711        O  0.25624902  0.96968413  0.67411603    -0.80700
O712        O  0.25632761  0.06830926  0.44857897    -0.80700
Co713      Co  0.23491125  0.94394442  0.56132787     1.51500
Co714      Co  0.23494836  0.09406419  0.56136039     1.51700
Co715      Co  0.30308861  0.01899945  0.48630135     1.51600
Co716      Co  0.30305824  0.01897486  0.63641556     1.51500
O717        O  0.26900069  0.01899708  0.56135239    -1.42600
C718        C  0.20900998  0.95772927  0.66494199     1.08900
C719        C  0.20909165  0.08028293  0.45773284     1.09000
C720        C  0.20902935  0.95778297  0.45771944     1.08900
C721        C  0.20903251  0.08022775  0.66497450     1.08900
O722        O  0.96746721  0.18898805  0.50291981    -0.80700
O723        O  0.07065950  0.18899244  0.61977148    -0.80700
O724        O  0.06835218  0.25627849  0.44858270    -0.80700
O725        O  0.96973350  0.25619260  0.67412354    -0.80700
O726        O  0.07068270  0.18903022  0.50292250    -0.80800
O727        O  0.96743379  0.18896879  0.61975385    -0.80700
O728        O  0.06829953  0.25621227  0.67414831    -0.80700
O729        O  0.96978379  0.25622499  0.44856573    -0.80700
C730        C  0.95782525  0.20898219  0.45772511     1.09000
C731        C  0.08027451  0.20897803  0.66497833     1.08900
C732        C  0.08032812  0.20904176  0.45773518     1.09000
C733        C  0.95777764  0.20895304  0.66494995     1.08900
O734        O  0.90624812  0.28163889  0.61061727    -0.80700
O735        O  0.13182815  0.28172360  0.51210023    -0.80800
O736        O  0.96061122  0.34889677  0.50975586    -0.80700
O737        O  0.07744237  0.34889726  0.61299938    -0.80700
O738        O  0.13181233  0.28167316  0.61067308    -0.80700
O739        O  0.90626641  0.28165461  0.51204313    -0.80700
O740        O  0.96060188  0.34887553  0.61295898    -0.80700
O741        O  0.07744270  0.34893611  0.50978047    -0.80700
Co742      Co  0.94399063  0.23485742  0.56133506     1.51500
Co743      Co  0.09410908  0.23489472  0.56136428     1.51700
Co744      Co  0.01904505  0.30303904  0.48630852     1.51600
Co745      Co  0.01902032  0.30300405  0.63642088     1.51500
O746        O  0.01904256  0.26894688  0.56135816    -1.42600
C747        C  0.91540798  0.32887576  0.62259301     1.08900
C748        C  0.12264669  0.32896183  0.50013898     1.09000
C749        C  0.91542773  0.32889605  0.50008182     1.08900
C750        C  0.12263848  0.32890637  0.62264784     1.08900
C751        C  0.11848299  0.18461909  0.42180737     0.02600
C752        C  0.13426175  0.13421400  0.43380553    -0.13600
C753        C  0.18466552  0.11843600  0.42180529     0.00100
C754        C  0.21686408  0.15030901  0.38891777    -0.12100
C755        C  0.20300380  0.20295880  0.37672313     0.02600
C756        C  0.15035516  0.21682036  0.38892045    -0.11500
H757        H  0.11065878  0.11060896  0.46029149     0.08200
H758        H  0.25497489  0.13559632  0.37769529     0.05700
H759        H  0.13564267  0.25493152  0.37769935    -0.01700
C760        C  0.15855721  0.41954154  0.72697914     0.02600
C761        C  0.19145743  0.38767789  0.75917619    -0.13600
C762        C  0.20366165  0.33502856  0.74531896     0.00100
C763        C  0.19145855  0.32115864  0.69267444    -0.12100
C764        C  0.15855504  0.35334538  0.66080475     0.02600
C765        C  0.14654154  0.40374767  0.67658212    -0.11500
H766        H  0.20268436  0.40239679  0.79728437     0.08200
H767        H  0.20268785  0.28304803  0.67796547     0.05700
H768        H  0.12004222  0.42734092  0.65298073     0.05500
C769        C  0.11839631  0.18452819  0.70092611     0.02600
C770        C  0.13418212  0.13412957  0.68890828    -0.13600
C771        C  0.18458149  0.11834676  0.70092415     0.00100
C772        C  0.21675871  0.15019823  0.73385608    -0.12100
C773        C  0.20288817  0.20283968  0.74607884     0.02600
C774        C  0.15024654  0.21670764  0.73385732    -0.11500
H775        H  0.11059606  0.11054232  0.66239080     0.08200
H776        H  0.25486821  0.13548421  0.74508519     0.05700
H777        H  0.13553137  0.25481646  0.74508682     0.05500
C778        C  0.65860163  0.18453159  0.16071203     0.02600
C779        C  0.69153701  0.21670773  0.19256047    -0.13600
C780        C  0.70375819  0.20283917  0.24520173     0.00100
C781        C  0.69153422  0.15019825  0.25907296    -0.12100
C782        C  0.65859744  0.11834938  0.22689897     0.02600
C783        C  0.64657484  0.13413562  0.17650161    -0.11500
H784        H  0.70277116  0.25481368  0.17784420     0.08200
H785        H  0.70276744  0.13548246  0.29717978     0.05700
H786        H  0.62005294  0.11055213  0.15291875     0.05500
C787        C  0.18457455  0.65855577  0.16070367     0.02600
C788        C  0.21674719  0.69149578  0.19255030    -0.13600
C789        C  0.20287892  0.70371717  0.24519097     0.00100
C790        C  0.15023976  0.69149076  0.25906276    -0.12100
C791        C  0.11839317  0.65854986  0.22689061     0.02600
C792        C  0.13418076  0.64652443  0.17649454    -0.11500
H793        H  0.25485137  0.70273306  0.17783331     0.08200
H794        H  0.13552408  0.70272538  0.29716789     0.05700
H795        H  0.11059961  0.61999828  0.15291321     0.05500
C796        C  0.33519989  0.33515173  0.24606419     0.02600
C797        C  0.32132806  0.38779205  0.23383519    -0.13600
C798        C  0.35349079  0.41963424  0.20088117     0.00100
C799        C  0.40387867  0.40383010  0.18882917    -0.12100
C800        C  0.41968075  0.35344037  0.20088103     0.02600
C801        C  0.38783833  0.32127765  0.23383491    -0.11500
H802        H  0.28322605  0.40251110  0.24508045     0.08200
H803        H  0.42745175  0.42740323  0.16228852     0.05700
H804        H  0.40255617  0.28317326  0.24508053     0.05500
C805        C  0.33518912  0.20369749  0.37750775     0.02600
C806        C  0.38782856  0.19147022  0.36363764    -0.13600
C807        C  0.41967108  0.15851867  0.39580313     0.00100
C808        C  0.40386828  0.14646865  0.44619167    -0.12100
C809        C  0.35347859  0.15851929  0.46199077     0.02600
C810        C  0.32131524  0.19147027  0.43014587    -0.11500
H811        H  0.40254704  0.20271466  0.32553554     0.08200
H812        H  0.42744104  0.11992973  0.46976621     0.05700
H813        H  0.28321089  0.20271431  0.44486149     0.05500
C814        C  0.20374571  0.33514308  0.37751294     0.02600
C815        C  0.19151735  0.38778345  0.36364338    -0.13600
C816        C  0.15856386  0.41962425  0.39580742     0.00100
C817        C  0.14651152  0.40381830  0.44619447    -0.12100
C818        C  0.15856352  0.35342810  0.46199433     0.02600
C819        C  0.19151696  0.32126645  0.43015063    -0.11500
H820        H  0.20276254  0.40250374  0.32554215     0.08200
H821        H  0.11997005  0.42739089  0.46976868     0.05700
H822        H  0.20276236  0.28316194  0.44486655     0.05500
C823        C  0.24318201  0.24313520  0.35382935     0.01700
C824        C  0.22669912  0.29498500  0.33734873     0.01700
C825        C  0.24319147  0.31147694  0.28550561     0.01700
C826        C  0.29503760  0.29499074  0.26901816     0.01700
C827        C  0.31151927  0.24314091  0.28550124     0.01700
C828        C  0.29502867  0.22664783  0.33734444     0.01700
loop_ 
_geom_bond_atom_site_label_1 
_geom_bond_atom_site_label_2 
_geom_bond_distance 
_geom_bond_site_symmetry_2 
_ccdc_geom_bond_type 
C1            C2   1.425       .  A
C1            C6   1.379       .  A
C1          C440   1.472       .  S
C2            C3   1.421       .  A
C2            H7   1.079       .  S
C3            C4   1.421       .  A
C3           C29   1.560       .  S
C4            C5   1.425       .  A
C4            H8   1.079       .  S
C5            C6   1.379       .  A
C5          C359   1.472       .  S
C6            H9   1.085       .  S
C10          C11   1.379       .  A
C10          C15   1.425       .  A
C10         C123   1.472       .  S
C11          C12   1.379       .  A
C11          H16   1.085       .  S
C12          C13   1.425       .  A
C12         C204   1.472       .  S
C13          C14   1.421       .  A
C13          H17   1.079       .  S
C14          C15   1.421       .  A
C14          C31   1.560       .  S
C15          H18   1.079       .  S
C19          C20   1.425       .  A
C19          C24   1.379       .  A
C19         C658   1.472       .  S
C20          C21   1.421       .  A
C20          H25   1.079       .  S
C21          C22   1.421       .  A
C21          C33   1.560       .  S
C22          C23   1.425       .  A
C22          H26   1.079       .  S
C23          C24   1.379       .  A
C23         C577   1.472       .  S
C24          H27   1.085       .  S
C28          C29   1.447       .  A
C28          C33   1.447       .  A
C28         C233   1.560       .  S
C29          C30   1.447       .  A
C30          C31   1.447       .  A
C30          C88   1.560       .  S
C31          C32   1.447       .  A
C32          C33   1.447       .  A
C32          C70   1.560       .  S
C34          C35   1.421       .  A
C34          C39   1.421       .  A
C34         C688   1.560       .  S
C35          C36   1.425       .  A
C35          H40   1.079       .  S
C36          C37   1.379       .  A
C36         C521   1.472       .  S
C37          C38   1.379       .  A
C37          H41   1.085       .  S
C38          C39   1.425       .  A
C38         C293   1.472       .  S
C39          H42   1.079       .  S
C43          C44   1.421       .  A
C43          C48   1.421       .  A
C43         C471   1.560       .  S
C44          C45   1.425       .  A
C44          H49   1.079       .  S
C45          C46   1.379       .  A
C45         C303   1.472       .  S
C46          C47   1.379       .  A
C46          H50   1.085       .  S
C47          C48   1.425       .  A
C47         C749   1.472       .  S
C48          H51   1.079       .  S
C52          C53   1.421       .  A
C52          C57   1.421       .  A
C52         C252   1.560       .  S
C53          C54   1.425       .  A
C53          H58   1.079       .  S
C54          C55   1.379       .  A
C54         C701   1.472       .  S
C55          C56   1.379       .  A
C55          H59   1.085       .  S
C56          C57   1.425       .  A
C56         C511   1.472       .  S
C57          H60   1.079       .  S
C61          C62   1.421       .  A
C61          C66   1.421       .  A
C61         C400   1.560       .  S
C62          C63   1.425       .  A
C62          H67   1.079       .  S
C63          C64   1.379       .  A
C63         C641   1.472       .  S
C64          C65   1.379       .  A
C64          H68   1.085       .  S
C65          C66   1.425       .  A
C65         C141   1.472       .  S
C66          H69   1.079       .  S
C70          C71   1.421       .  A
C70          C75   1.421       .  A
C71          C72   1.425       .  A
C71          H76   1.079       .  S
C72          C73   1.379       .  A
C72         C639   1.472       .  S
C73          C74   1.379       .  A
C73          H77   1.085       .  S
C74          C75   1.425       .  A
C74         C142   1.472       .  S
C75          H78   1.079       .  S
C79          C80   1.421       .  A
C79          C84   1.421       .  A
C79         C618   1.560       .  S
C80          C81   1.425       .  A
C80          H85   1.079       .  S
C81          C82   1.379       .  A
C81         C377   1.472   1_556  S
C82          C83   1.379       .  A
C82          H86   1.085       .  S
C83          C84   1.425       .  A
C83         C187   1.472       .  S
C84          H87   1.079       .  S
C88          C89   1.421       .  A
C88          C93   1.421       .  A
C89          C90   1.425       .  A
C89          H94   1.079       .  S
C90          C91   1.379       .  A
C90         C185   1.472       .  S
C91          C92   1.379       .  A
C91          H95   1.085       .  S
C92          C93   1.425       .  A
C92         C378   1.472   1_556  S
C93          H96   1.079       .  S
C97          C98   1.379       .  A
C97         C102   1.425       .  A
C97         C143   1.472       .  S
C98          C99   1.379       .  A
C98         H103   1.085       .  S
C99         C100   1.425       .  A
C99         C720   1.472       .  S
C100        C101   1.421       .  A
C100        H104   1.079       .  S
C101        C102   1.421       .  A
C101        C253   1.560       .  S
C102        H105   1.079       .  S
C106        C107   1.379       .  A
C106        C111   1.425       .  A
C106        C718   1.472       .  S
C107        C108   1.379       .  A
C107        H112   1.085       .  S
C108        C109   1.425       .  A
C108        C140   1.472       .  S
C109        C110   1.421       .  A
C109        H113   1.079       .  S
C110        C111   1.421       .  A
C110        C162   1.560       .  S
C111        H114   1.079       .  S
O115        C123   1.282       .  A
O115       Co135   1.983   1_655  S
O116        C124   1.282       .  A
O116       Co136   1.983       .  S
O117        C125   1.262       .  A
O117       Co137   1.979       .  S
O118        C126   1.263       .  A
O118       Co138   1.979       .  S
O119        C125   1.282       .  A
O119       Co136   1.983   1_655  S
O120        C126   1.282       .  A
O120       Co135   1.983       .  S
O121        C124   1.262       .  A
O121       Co138   1.979       .  S
O122        C123   1.263       .  A
O122       Co137   1.979       .  S
C124        C242   1.472       .  S
C125        C389   1.472       .  S
C126        C170   1.472       .  S
O127        C140   1.263       .  A
O127       Co135   1.979       .  S
O128        C141   1.262       .  A
O128       Co136   1.979   1_655  S
O129        C142   1.282       .  A
O129       Co137   1.983       .  S
O130        C143   1.282       .  A
O130       Co138   1.983       .  S
O131        C143   1.262       .  A
O131       Co136   1.979       .  S
O132        C142   1.262       .  A
O132       Co135   1.979   1_655  S
O133        C140   1.282       .  A
O133       Co138   1.983       .  S
O134        C141   1.282       .  A
O134       Co137   1.983       .  S
Co135       O139   2.099       .  S
Co136       O139   2.099       .  S
Co137       O139   2.099   1_655  S
Co138       O139   2.099       .  S
C144        C145   1.425       .  A
C144        C149   1.379       .  A
C144        C439   1.472       .  S
C145        C146   1.421       .  A
C145        H150   1.079       .  S
C146        C147   1.421       .  A
C146        C165   1.560       .  S
C147        C148   1.425       .  A
C147        H151   1.079       .  S
C148        C149   1.379       .  A
C148        C291   1.472       .  S
C149        H152   1.085       .  S
C153        C154   1.379       .  A
C153        C158   1.425       .  A
C153        C579   1.472       .  S
C154        C155   1.379       .  A
C154        H159   1.085       .  S
C155        C156   1.425       .  A
C155        C704   1.472       .  S
C156        C157   1.421       .  A
C156        H160   1.079       .  S
C157        C158   1.421       .  A
C157        C163   1.560       .  S
C158        H161   1.079       .  S
C162        C163   1.447       .  A
C162        C167   1.447       .  A
C163        C164   1.447       .  A
C164        C165   1.447       .  A
C164        C224   1.560       .  S
C165        C166   1.447       .  A
C166        C167   1.447       .  A
C166        C217   1.560       .  S
C167        C168   1.560       .  S
C168        C169   1.421       .  A
C168        C173   1.421       .  A
C169        C170   1.425       .  A
C169        H174   1.079       .  S
C170        C171   1.379       .  A
C171        C172   1.379       .  A
C171        H175   1.085       .  S
C172        C173   1.425       .  A
C172        C202   1.472       .  S
C173        H176   1.079       .  S
O177        C185   1.262       .  A
O177       Co197   1.979   1_655  S
O178        C186   1.262       .  A
O178       Co198   1.979       .  S
O179        C187   1.282       .  A
O179       Co199   1.983       .  S
O180        C188   1.282       .  A
O180       Co200   1.983       .  S
O181        C187   1.262       .  A
O181       Co198   1.979   1_655  S
O182        C188   1.263       .  A
O182       Co197   1.979       .  S
O183        C186   1.282       .  A
O183       Co200   1.983       .  S
O184        C185   1.282       .  A
O184       Co199   1.983       .  S
C186        C206   1.472       .  S
C188        C219   1.472       .  S
O189        C202   1.282       .  A
O189       Co197   1.983       .  S
O190        C203   1.282       .  A
O190       Co198   1.983   1_655  S
O191        C204   1.263       .  A
O191       Co199   1.979       .  S
O192        C205   1.262       .  A
O192       Co200   1.979       .  S
O193        C205   1.282       .  A
O193       Co198   1.983       .  S
O194        C204   1.282       .  A
O194       Co197   1.983   1_655  S
O195        C202   1.263       .  A
O195       Co200   1.979       .  S
O196        C203   1.262       .  A
O196       Co199   1.979       .  S
Co197       O201   2.099       .  S
Co198       O201   2.099       .  S
Co199       O201   2.099   1_655  S
Co200       O201   2.099       .  S
C203        C607   1.472       .  S
C205        C760   1.472       .  S
C206        C207   1.379       .  A
C206        C211   1.425       .  A
C207        C208   1.379       .  A
C207        H212   1.085       .  S
C208        C209   1.425       .  A
C208        C274   1.472   1_556  S
C209        C210   1.421       .  A
C209        H213   1.079       .  S
C210        C211   1.421       .  A
C210        C687   1.560       .  S
C211        H214   1.079       .  S
C215        C216   1.425       .  A
C215        C220   1.379       .  A
C215        C277   1.472   1_556  S
C216        C217   1.421       .  A
C216        H221   1.079       .  S
C217        C218   1.421       .  A
C218        C219   1.425       .  A
C218        H222   1.079       .  S
C219        C220   1.379       .  A
C220        H223   1.085       .  S
C224        C225   1.421       .  A
C224        C229   1.421       .  A
C225        C226   1.425       .  A
C225        H230   1.079       .  S
C226        C227   1.379       .  A
C226        C423   1.472   1_556  S
C227        C228   1.379       .  A
C227        H231   1.085       .  S
C228        C229   1.425       .  A
C228        C595   1.472       .  S
C229        H232   1.079       .  S
C233        C234   1.421       .  A
C233        C238   1.421       .  A
C234        C235   1.425       .  A
C234        H239   1.079       .  S
C235        C236   1.379       .  A
C235        C596   1.472       .  S
C236        C237   1.379       .  A
C236        H240   1.085       .  S
C237        C238   1.425       .  A
C237        C421   1.472   1_556  S
C238        H241   1.079       .  S
C242        C243   1.425       .  A
C242        C247   1.379       .  A
C243        C244   1.421       .  A
C243        H248   1.079       .  S
C244        C245   1.421       .  A
C244        C254   1.560       .  S
C245        C246   1.425       .  A
C245        H249   1.079       .  S
C246        C247   1.379       .  A
C246        C304   1.472       .  S
C247        H250   1.085       .  S
C251        C252   1.447       .  A
C251        C256   1.447       .  A
C251        C446   1.560       .  S
C252        C253   1.447       .  A
C253        C254   1.447       .  A
C254        C255   1.447       .  A
C255        C256   1.447       .  A
C255        C789   1.560       .  S
C256        C259   1.560       .  S
C257        C258   1.425       .  A
C257        C262   1.379       .  A
C257        C441   1.472       .  S
C258        C259   1.421       .  A
C258        H263   1.079       .  S
C259        C260   1.421       .  A
C260        C261   1.425       .  A
C260        H264   1.079       .  S
C261        C262   1.379       .  A
C261        C294   1.472       .  S
C262        H265   1.085       .  S
O266        C274   1.282       .  A
O266       Co286   1.983   1_554  S
O267        C275   1.282       .  A
O267       Co287   1.983       .  S
O268        C276   1.262       .  A
O268       Co288   1.979       .  S
O269        C277   1.262       .  A
O269       Co289   1.979       .  S
O270        C276   1.282       .  A
O270       Co287   1.983       .  S
O271        C277   1.282       .  A
O271       Co286   1.983   1_554  S
O272        C275   1.262       .  A
O272       Co289   1.979       .  S
O273        C274   1.263       .  A
O273       Co288   1.979       .  S
C275        C787   1.472       .  S
C276        C328   1.472       .  S
O278        C291   1.262       .  A
O278       Co286   1.979       .  S
O279        C292   1.263       .  A
O279       Co287   1.979       .  S
O280        C293   1.282   1_554  A
O280       Co288   1.983       .  S
O281        C294   1.282       .  A
O281       Co289   1.983       .  S
O282        C294   1.262       .  A
O282       Co287   1.979       .  S
O283        C293   1.262       .  A
O283       Co286   1.979       .  S
O284        C291   1.282   1_554  A
O284       Co289   1.983       .  S
O285        C292   1.282       .  A
O285       Co288   1.983       .  S
Co286       O290   2.099   1_556  S
Co287       O290   2.099       .  S
Co288       O290   2.099       .  S
Co289       O290   2.099       .  S
C292        C798   1.472       .  S
O295        C303   1.262       .  A
O295       Co315   1.979       .  S
O296        C304   1.262       .  A
O296       Co316   1.979       .  S
O297        C305   1.282       .  A
O297       Co317   1.983       .  S
O298        C306   1.282       .  A
O298       Co318   1.983   1_655  S
O299        C305   1.263       .  A
O299       Co316   1.979       .  S
O300        C306   1.262       .  A
O300       Co315   1.979       .  S
O301        C304   1.282       .  A
O301       Co318   1.983       .  S
O302        C303   1.282       .  A
O302       Co317   1.983   1_655  S
C305        C816   1.472       .  S
C306        C393   1.472       .  S
O307        C320   1.282       .  A
O307       Co315   1.983       .  S
O308        C321   1.282       .  A
O308       Co316   1.983       .  S
O309        C322   1.263       .  A
O309       Co317   1.979   1_655  S
O310        C323   1.262       .  A
O310       Co318   1.979       .  S
O311        C323   1.282       .  A
O311       Co316   1.983       .  S
O312        C322   1.282       .  A
O312       Co315   1.983       .  S
O313        C320   1.262       .  A
O313       Co318   1.979   1_655  S
O314        C321   1.262       .  A
O314       Co317   1.979       .  S
Co315       O319   2.099   1_655  S
Co316       O319   2.099       .  S
Co317       O319   2.099       .  S
Co318       O319   2.099       .  S
C320        C342   1.472       .  S
C321        C324   1.472       .  S
C322        C337   1.472       .  S
C323        C791   1.472       .  S
C324        C325   1.425       .  A
C324        C329   1.379       .  A
C325        C326   1.421       .  A
C325        H330   1.079       .  S
C326        C327   1.421       .  A
C326        C825   1.560       .  S
C327        C328   1.425       .  A
C327        H331   1.079       .  S
C328        C329   1.379       .  A
C329        H332   1.085       .  S
C333        C334   1.425       .  A
C333        C338   1.379       .  A
C333        C379   1.472       .  S
C334        C335   1.421       .  A
C334        H339   1.079       .  S
C335        C336   1.421       .  A
C335        C470   1.560       .  S
C336        C337   1.425       .  A
C336        H340   1.079       .  S
C337        C338   1.379       .  A
C338        H341   1.085       .  S
C342        C343   1.379       .  A
C342        C347   1.425       .  A
C343        C344   1.379       .  A
C343        H348   1.085       .  S
C344        C345   1.425       .  A
C344        C376   1.472       .  S
C345        C346   1.421       .  A
C345        H349   1.079       .  S
C346        C347   1.421       .  A
C346        C402   1.560       .  S
C347        H350   1.079       .  S
O351        C359   1.282   1_554  A
O351       Co371   1.983       .  S
O352        C360   1.282       .  A
O352       Co372   1.983       .  S
O353        C361   1.262       .  A
O353       Co373   1.979       .  S
O354        C362   1.263       .  A
O354       Co374   1.979       .  S
O355        C361   1.282   1_554  A
O355       Co372   1.983       .  S
O356        C362   1.282       .  A
O356       Co371   1.983       .  S
O357        C360   1.262       .  A
O357       Co374   1.979       .  S
O358        C359   1.263       .  A
O358       Co373   1.979       .  S
C360        C460   1.472       .  S
C361        C598   1.472       .  S
C362        C408   1.472       .  S
O363        C376   1.263       .  A
O363       Co371   1.979       .  S
O364        C377   1.262       .  A
O364       Co372   1.979       .  S
O365        C378   1.282       .  A
O365       Co373   1.983   1_554  S
O366        C379   1.282       .  A
O366       Co374   1.983       .  S
O367        C379   1.262       .  A
O367       Co372   1.979       .  S
O368        C378   1.262       .  A
O368       Co371   1.979       .  S
O369        C376   1.282       .  A
O369       Co374   1.983       .  S
O370        C377   1.282       .  A
O370       Co373   1.983   1_554  S
Co371       O375   2.099       .  S
Co372       O375   2.099       .  S
Co373       O375   2.099   1_556  S
Co374       O375   2.099       .  S
C380        C381   1.425       .  A
C380        C385   1.379       .  A
C380        C657   1.472       .  S
C381        C382   1.421       .  A
C381        H386   1.079       .  S
C382        C383   1.421       .  A
C382        C399   1.560       .  S
C383        C384   1.425       .  A
C383        H387   1.079       .  S
C384        C385   1.379       .  A
C384        C509   1.472       .  S
C385        H388   1.085       .  S
C389        C390   1.425       .  A
C389        C394   1.379       .  A
C390        C391   1.421       .  A
C390        H395   1.079       .  S
C391        C392   1.421       .  A
C391        C401   1.560       .  S
C392        C393   1.425       .  A
C392        H396   1.079       .  S
C393        C394   1.379       .  A
C394        H397   1.085       .  S
C398        C399   1.447       .  A
C398        C403   1.447       .  A
C398        C453   1.560       .  S
C399        C400   1.447       .  A
C400        C401   1.447       .  A
C401        C402   1.447       .  A
C402        C403   1.447       .  A
C403        C404   1.560       .  S
C404        C405   1.421       .  A
C404        C409   1.421       .  A
C405        C406   1.425       .  A
C405        H410   1.079       .  S
C406        C407   1.379       .  A
C406        C438   1.472       .  S
C407        C408   1.379       .  A
C407        H411   1.085       .  S
C408        C409   1.425       .  A
C409        H412   1.079       .  S
O413        C421   1.262       .  A
O413       Co433   1.979       .  S
O414        C422   1.262       .  A
O414       Co434   1.979       .  S
O415        C423   1.282       .  A
O415       Co435   1.983   1_554  S
O416        C424   1.282       .  A
O416       Co436   1.983       .  S
O417        C423   1.262       .  A
O417       Co434   1.979       .  S
O418        C424   1.263       .  A
O418       Co433   1.979       .  S
O419        C422   1.282       .  A
O419       Co436   1.983       .  S
O420        C421   1.282       .  A
O420       Co435   1.983   1_554  S
C422        C442   1.472       .  S
C424        C455   1.472       .  S
O425        C438   1.282       .  A
O425       Co433   1.983       .  S
O426        C439   1.282   1_554  A
O426       Co434   1.983       .  S
O427        C440   1.263       .  A
O427       Co435   1.979       .  S
O428        C441   1.262       .  A
O428       Co436   1.979       .  S
O429        C441   1.282       .  A
O429       Co434   1.983       .  S
O430        C440   1.282   1_554  A
O430       Co433   1.983       .  S
O431        C438   1.263       .  A
O431       Co436   1.979       .  S
O432        C439   1.262       .  A
O432       Co435   1.979       .  S
Co433       O437   2.099       .  S
Co434       O437   2.099       .  S
Co435       O437   2.099   1_556  S
Co436       O437   2.099       .  S
C442        C443   1.379       .  A
C442        C447   1.425       .  A
C443        C444   1.379       .  A
C443        H448   1.085       .  S
C444        C445   1.425       .  A
C444        C492   1.472       .  S
C445        C446   1.421       .  A
C445        H449   1.079       .  S
C446        C447   1.421       .  A
C447        H450   1.079       .  S
C451        C452   1.425       .  A
C451        C456   1.379       .  A
C451        C495   1.472       .  S
C452        C453   1.421       .  A
C452        H457   1.079       .  S
C453        C454   1.421       .  A
C454        C455   1.425       .  A
C454        H458   1.079       .  S
C455        C456   1.379       .  A
C456        H459   1.085       .  S
C460        C461   1.379       .  A
C460        C465   1.425       .  A
C461        C462   1.379       .  A
C461        H466   1.085       .  S
C462        C463   1.425       .  A
C462        C522   1.472       .  S
C463        C464   1.421       .  A
C463        H467   1.079       .  S
C464        C465   1.421       .  A
C464        C469   1.560       .  S
C465        H468   1.079       .  S
C469        C470   1.447       .  A
C469        C474   1.447       .  A
C470        C471   1.447       .  A
C471        C472   1.447       .  A
C472        C473   1.447       .  A
C472        C662   1.560       .  S
C473        C474   1.447       .  A
C473        C479   1.560       .  S
C474        C780   1.560       .  S
C475        C476   1.379       .  A
C475        C480   1.425       .  A
C475        C659   1.472       .  S
C476        C477   1.379       .  A
C476        H481   1.085       .  S
C477        C478   1.425       .  A
C477        C512   1.472       .  S
C478        C479   1.421       .  A
C478        H482   1.079       .  S
C479        C480   1.421       .  A
C480        H483   1.079       .  S
O484        C492   1.282       .  A
O484       Co504   1.983       .  S
O485        C493   1.282       .  A
O485       Co505   1.983       .  S
O486        C494   1.262       .  A
O486       Co506   1.979       .  S
O487        C495   1.262       .  A
O487       Co507   1.979   1_565  S
O488        C494   1.282       .  A
O488       Co505   1.983       .  S
O489        C495   1.282       .  A
O489       Co504   1.983       .  S
O490        C493   1.262       .  A
O490       Co507   1.979       .  S
O491        C492   1.263       .  A
O491       Co506   1.979   1_565  S
C493        C782   1.472       .  S
C494        C546   1.472       .  S
O496        C509   1.262       .  A
O496       Co504   1.979       .  S
O497        C510   1.263       .  A
O497       Co505   1.979       .  S
O498        C511   1.282       .  A
O498       Co506   1.983   1_565  S
O499        C512   1.282       .  A
O499       Co507   1.983       .  S
O500        C512   1.262       .  A
O500       Co505   1.979       .  S
O501        C511   1.262       .  A
O501       Co504   1.979       .  S
O502        C509   1.282       .  A
O502       Co507   1.983   1_565  S
O503        C510   1.282       .  A
O503       Co506   1.983       .  S
Co504       O508   2.099   1_565  S
Co505       O508   2.099       .  S
Co506       O508   2.099       .  S
Co507       O508   2.099       .  S
C510        C807   1.472       .  S
O513        C521   1.262       .  A
O513       Co533   1.979       .  S
O514        C522   1.262       .  A
O514       Co534   1.979       .  S
O515        C523   1.282       .  A
O515       Co535   1.983       .  S
O516        C524   1.282   1_554  A
O516       Co536   1.983       .  S
O517        C523   1.263       .  A
O517       Co534   1.979       .  S
O518        C524   1.262       .  A
O518       Co533   1.979       .  S
O519        C522   1.282       .  A
O519       Co536   1.983       .  S
O520        C521   1.282   1_554  A
O520       Co535   1.983       .  S
C523        C800   1.472       .  S
C524        C600   1.472       .  S
O525        C538   1.282       .  A
O525       Co533   1.983   1_554  S
O526        C539   1.282       .  A
O526       Co534   1.983       .  S
O527        C540   1.263       .  A
O527       Co535   1.979       .  S
O528        C541   1.262       .  A
O528       Co536   1.979       .  S
O529        C541   1.282       .  A
O529       Co534   1.983       .  S
O530        C540   1.282       .  A
O530       Co533   1.983   1_554  S
O531        C538   1.262       .  A
O531       Co536   1.979       .  S
O532        C539   1.262       .  A
O532       Co535   1.979       .  S
Co533       O537   2.099   1_556  S
Co534       O537   2.099       .  S
Co535       O537   2.099       .  S
Co536       O537   2.099       .  S
C538        C560   1.472   1_554  S
C539        C542   1.472       .  S
C540        C555   1.472   1_554  S
C541        C778   1.472       .  S
C542        C543   1.425       .  A
C542        C547   1.379       .  A
C543        C544   1.421       .  A
C543        H548   1.079       .  S
C544        C545   1.421       .  A
C544        C827   1.560       .  S
C545        C546   1.425       .  A
C545        H549   1.079       .  S
C546        C547   1.379       .  A
C547        H550   1.085       .  S
C551        C552   1.425       .  A
C551        C556   1.379       .  A
C551        C597   1.472       .  S
C552        C553   1.421       .  A
C552        H557   1.079       .  S
C553        C554   1.421       .  A
C553        C689   1.560       .  S
C554        C555   1.425       .  A
C554        H558   1.079       .  S
C555        C556   1.379       .  A
C556        H559   1.085       .  S
C560        C561   1.379       .  A
C560        C565   1.425       .  A
C561        C562   1.379       .  A
C561        H566   1.085       .  S
C562        C563   1.425       .  A
C562        C594   1.472       .  S
C563        C564   1.421       .  A
C563        H567   1.079       .  S
C564        C565   1.421       .  A
C564        C620   1.560       .  S
C565        H568   1.079       .  S
O569        C577   1.282       .  A
O569       Co589   1.983   1_565  S
O570        C578   1.282       .  A
O570       Co590   1.983       .  S
O571        C579   1.262       .  A
O571       Co591   1.979       .  S
O572        C580   1.263       .  A
O572       Co592   1.979       .  S
O573        C579   1.282       .  A
O573       Co590   1.983   1_565  S
O574        C580   1.282       .  A
O574       Co589   1.983       .  S
O575        C578   1.262       .  A
O575       Co592   1.979       .  S
O576        C577   1.263       .  A
O576       Co591   1.979       .  S
C578        C678   1.472       .  S
C580        C624   1.472       .  S
O581        C594   1.263       .  A
O581       Co589   1.979       .  S
O582        C595   1.262       .  A
O582       Co590   1.979   1_565  S
O583        C596   1.282       .  A
O583       Co591   1.983       .  S
O584        C597   1.282       .  A
O584       Co592   1.983       .  S
O585        C597   1.262       .  A
O585       Co590   1.979       .  S
O586        C596   1.262       .  A
O586       Co589   1.979   1_565  S
O587        C594   1.282       .  A
O587       Co592   1.983       .  S
O588        C595   1.282       .  A
O588       Co591   1.983       .  S
Co589       O593   2.099       .  S
Co590       O593   2.099       .  S
Co591       O593   2.099   1_565  S
Co592       O593   2.099       .  S
C598        C599   1.379       .  A
C598        C603   1.425       .  A
C599        C600   1.379       .  A
C599        H604   1.085       .  S
C600        C601   1.425       .  A
C601        C602   1.421       .  A
C601        H605   1.079       .  S
C602        C603   1.421       .  A
C602        C619   1.560       .  S
C603        H606   1.079       .  S
C607        C608   1.425       .  A
C607        C612   1.379       .  A
C608        C609   1.421       .  A
C608        H613   1.079       .  S
C609        C610   1.421       .  A
C609        C617   1.560       .  S
C610        C611   1.425       .  A
C610        H614   1.079       .  S
C611        C612   1.379       .  A
C611        C747   1.472       .  S
C612        H615   1.085       .  S
C616        C617   1.447       .  A
C616        C621   1.447       .  A
C616        C671   1.560       .  S
C617        C618   1.447       .  A
C618        C619   1.447       .  A
C619        C620   1.447       .  A
C620        C621   1.447       .  A
C621        C622   1.560       .  S
C622        C623   1.421       .  A
C622        C627   1.421       .  A
C623        C624   1.425       .  A
C623        H628   1.079       .  S
C624        C625   1.379       .  A
C625        C626   1.379       .  A
C625        H629   1.085       .  S
C626        C627   1.425       .  A
C626        C656   1.472       .  S
C627        H630   1.079       .  S
O631        C639   1.262       .  A
O631       Co651   1.979   1_565  S
O632        C640   1.262       .  A
O632       Co652   1.979       .  S
O633        C641   1.282       .  A
O633       Co653   1.983       .  S
O634        C642   1.282       .  A
O634       Co654   1.983       .  S
O635        C641   1.262       .  A
O635       Co652   1.979   1_565  S
O636        C642   1.263       .  A
O636       Co651   1.979       .  S
O637        C640   1.282       .  A
O637       Co654   1.983       .  S
O638        C639   1.282       .  A
O638       Co653   1.983       .  S
C640        C660   1.472       .  S
C642        C673   1.472       .  S
O643        C656   1.282       .  A
O643       Co651   1.983       .  S
O644        C657   1.282       .  A
O644       Co652   1.983   1_565  S
O645        C658   1.263       .  A
O645       Co653   1.979       .  S
O646        C659   1.262       .  A
O646       Co654   1.979       .  S
O647        C659   1.282       .  A
O647       Co652   1.983       .  S
O648        C658   1.282       .  A
O648       Co651   1.983   1_565  S
O649        C656   1.263       .  A
O649       Co654   1.979       .  S
O650        C657   1.262       .  A
O650       Co653   1.979       .  S
Co651       O655   2.099       .  S
Co652       O655   2.099       .  S
Co653       O655   2.099   1_565  S
Co654       O655   2.099       .  S
C660        C661   1.425       .  A
C660        C665   1.379       .  A
C661        C662   1.421       .  A
C661        H666   1.079       .  S
C662        C663   1.421       .  A
C663        C664   1.425       .  A
C663        H667   1.079       .  S
C664        C665   1.379       .  A
C664        C730   1.472       .  S
C665        H668   1.085       .  S
C669        C670   1.425       .  A
C669        C674   1.379       .  A
C669        C733   1.472       .  S
C670        C671   1.421       .  A
C670        H675   1.079       .  S
C671        C672   1.421       .  A
C672        C673   1.425       .  A
C672        H676   1.079       .  S
C673        C674   1.379       .  A
C674        H677   1.085       .  S
C678        C679   1.379       .  A
C678        C683   1.425       .  A
C679        C680   1.379       .  A
C679        H684   1.085       .  S
C680        C681   1.425       .  A
C680        C702   1.472       .  S
C681        C682   1.421       .  A
C681        H685   1.079       .  S
C682        C683   1.421       .  A
C682        C690   1.560       .  S
C683        H686   1.079       .  S
C687        C688   1.447       .  A
C687        C692   1.447       .  A
C688        C689   1.447       .  A
C689        C690   1.447       .  A
C690        C691   1.447       .  A
C691        C692   1.447       .  A
C691        C773   1.560       .  S
C692        C762   1.560       .  S
O693        C701   1.263       .  A
O693       Co713   1.979       .  S
O694        C702   1.262       .  A
O694       Co714   1.979       .  S
O695        C703   1.282       .  A
O695       Co715   1.983       .  S
O696        C704   1.282       .  A
O696       Co716   1.983   1_565  S
O697        C703   1.263       .  A
O697       Co714   1.979       .  S
O698        C704   1.262       .  A
O698       Co713   1.979       .  S
O699        C702   1.282       .  A
O699       Co716   1.983       .  S
O700        C701   1.282       .  A
O700       Co715   1.983   1_565  S
C703        C809   1.472       .  S
O705        C718   1.282       .  A
O705       Co713   1.983       .  S
O706        C719   1.282       .  A
O706       Co714   1.983       .  S
O707        C720   1.263       .  A
O707       Co715   1.979   1_565  S
O708        C721   1.262       .  A
O708       Co716   1.979       .  S
O709        C721   1.282       .  A
O709       Co714   1.983       .  S
O710        C720   1.282       .  A
O710       Co713   1.983       .  S
O711        C718   1.262       .  A
O711       Co716   1.979   1_565  S
O712        C719   1.262       .  A
O712       Co715   1.979       .  S
Co713       O717   2.099   1_565  S
Co714       O717   2.099       .  S
Co715       O717   2.099       .  S
Co716       O717   2.099       .  S
C719        C753   1.472       .  S
C721        C771   1.472       .  S
O722        C730   1.282       .  A
O722       Co742   1.983       .  S
O723        C731   1.282       .  A
O723       Co743   1.983       .  S
O724        C732   1.262       .  A
O724       Co744   1.979       .  S
O725        C733   1.262       .  A
O725       Co745   1.979   1_655  S
O726        C732   1.282       .  A
O726       Co743   1.983       .  S
O727        C733   1.282       .  A
O727       Co742   1.983       .  S
O728        C731   1.262       .  A
O728       Co745   1.979       .  S
O729        C730   1.263       .  A
O729       Co744   1.979   1_655  S
C731        C769   1.472       .  S
C732        C751   1.472       .  S
O734        C747   1.262       .  A
O734       Co742   1.979       .  S
O735        C748   1.263       .  A
O735       Co743   1.979       .  S
O736        C749   1.282       .  A
O736       Co744   1.983   1_655  S
O737        C750   1.282       .  A
O737       Co745   1.983       .  S
O738        C750   1.262       .  A
O738       Co743   1.979       .  S
O739        C749   1.263       .  A
O739       Co742   1.979       .  S
O740        C747   1.282       .  A
O740       Co745   1.983   1_655  S
O741        C748   1.282       .  A
O741       Co744   1.983       .  S
Co742       O746   2.099   1_655  S
Co743       O746   2.099       .  S
Co744       O746   2.099       .  S
Co745       O746   2.099       .  S
C748        C818   1.472       .  S
C750        C764   1.472       .  S
C751        C752   1.379       .  A
C751        C756   1.425       .  A
C752        C753   1.379       .  A
C752        H757   1.085       .  S
C753        C754   1.425       .  A
C754        C755   1.421       .  A
C754        H758   1.079       .  S
C755        C756   1.421       .  A
C755        C823   1.560       .  S
C756        H759   1.079       .  S
C760        C761   1.425       .  A
C760        C765   1.379       .  A
C761        C762   1.421       .  A
C761        H766   1.079       .  S
C762        C763   1.421       .  A
C763        C764   1.425       .  A
C763        H767   1.079       .  S
C764        C765   1.379       .  A
C765        H768   1.085       .  S
C769        C770   1.379       .  A
C769        C774   1.425       .  A
C770        C771   1.379       .  A
C770        H775   1.085       .  S
C771        C772   1.425       .  A
C772        C773   1.421       .  A
C772        H776   1.079       .  S
C773        C774   1.421       .  A
C774        H777   1.079       .  S
C778        C779   1.425       .  A
C778        C783   1.379       .  A
C779        C780   1.421       .  A
C779        H784   1.079       .  S
C780        C781   1.421       .  A
C781        C782   1.425       .  A
C781        H785   1.079       .  S
C782        C783   1.379       .  A
C783        H786   1.085       .  S
C787        C788   1.425       .  A
C787        C792   1.379       .  A
C788        C789   1.421       .  A
C788        H793   1.079       .  S
C789        C790   1.421       .  A
C790        C791   1.425       .  A
C790        H794   1.079       .  S
C791        C792   1.379       .  A
C792        H795   1.085       .  S
C796        C797   1.421       .  A
C796        C801   1.421       .  A
C796        C826   1.560       .  S
C797        C798   1.425       .  A
C797        H802   1.079       .  S
C798        C799   1.379       .  A
C799        C800   1.379       .  A
C799        H803   1.085       .  S
C800        C801   1.425       .  A
C801        H804   1.079       .  S
C805        C806   1.421       .  A
C805        C810   1.421       .  A
C805        C828   1.560       .  S
C806        C807   1.425       .  A
C806        H811   1.079       .  S
C807        C808   1.379       .  A
C808        C809   1.379       .  A
C808        H812   1.085       .  S
C809        C810   1.425       .  A
C810        H813   1.079       .  S
C814        C815   1.421       .  A
C814        C819   1.421       .  A
C814        C824   1.560       .  S
C815        C816   1.425       .  A
C815        H820   1.079       .  S
C816        C817   1.379       .  A
C817        C818   1.379       .  A
C817        H821   1.085       .  S
C818        C819   1.425       .  A
C819        H822   1.079       .  S
C823        C824   1.447       .  A
C823        C828   1.447       .  A
C824        C825   1.447       .  A
C825        C826   1.447       .  A
C826        C827   1.447       .  A
C827        C828   1.447       .  A
