geometry optimzed in LAMMPS
_audit_creation_date              2020-11-30 
_audit_creation_method            'lammps2cif' 
_symmetry_space_group_name_H-M    'P1' 
_symmetry_Int_Tables_number       1 
_symmetry_cell_setting            triclinic 
loop_ 
_symmetry_equiv_pos_as_xyz 
  x,y,z 
_cell_length_a                    42.10705841 
_cell_length_b                    42.00721426505245 
_cell_length_c                    42.341408753786006 
_cell_angle_alpha                 89.91807762952477 
_cell_angle_beta                  89.65968351530849 
_cell_angle_gamma                 89.97217085771027 
loop_ 
_atom_site_label 
_atom_site_type_symbol 
_atom_site_fract_x 
_atom_site_fract_y 
_atom_site_fract_z 
_atom_site_charge 
O1          O  0.17957066  0.31045423  0.38645814    -0.80700
O2          O  0.15066985  0.44395839  0.37352629    -0.80700
O3          O  0.12513658  0.33320021  0.31155277    -0.80700
O4          O  0.13601714  0.40535797  0.43655604    -0.80700
O5          O  0.15484971  0.37653969  0.30950458    -0.80800
O6          O  0.17265989  0.36662370  0.42647433    -0.80700
O7          O  0.12947568  0.43265299  0.42119477    -0.80700
O8          O  0.14154794  0.31222793  0.34934538    -0.80700
C9          C  0.16720640  0.30016864  0.36073985     1.09000
C10         C  0.14686076  0.45018625  0.40268059     1.08900
C11         C  0.14660891  0.34979157  0.29867625     1.09000
C12         C  0.16278861  0.39049520  0.44238698     1.08900
O13         O  0.12739800  0.33111312  0.43056884    -0.80700
O14         O  0.10282432  0.40532526  0.31564602    -0.80800
O15         O  0.07774003  0.31163253  0.37346270    -0.80700
O16         O  0.08707009  0.44038576  0.38273366    -0.80700
O17         O  0.10558367  0.42978220  0.33413817    -0.80700
O18         O  0.12000478  0.30998703  0.40428856    -0.80700
O19         O  0.09185170  0.36894742  0.44266235    -0.80700
O20         O  0.07394418  0.36021697  0.32171028    -0.80700
Co21       Co  0.15084444  0.34582871  0.39000942     1.51500
Co22       Co  0.14394221  0.40550369  0.34552217     1.51700
Co23       Co  0.10432230  0.34312016  0.35167579     1.51600
Co24       Co  0.09503798  0.40135531  0.40915675     1.51500
O25         O  0.12130919  0.37780032  0.37727481    -1.42600
C26         C  0.10536659  0.34297265  0.44866066     1.08900
C27         C  0.07946160  0.38606561  0.30740243     1.09000
C28         C  0.09309978  0.29834714  0.39527893     1.08900
C29         C  0.08962839  0.44697177  0.35363222     1.08900
O30         O  0.37054930  0.17439384  0.32422369    -0.80700
O31         O  0.37661332  0.16810542  0.42792303    -0.80700
O32         O  0.30483925  0.12698110  0.34614506    -0.80700
O33         O  0.43538680  0.13120234  0.40148741    -0.80700
O34         O  0.31689702  0.17249501  0.36994454    -0.80800
O35         O  0.42079664  0.17438514  0.37432894    -0.80700
O36         O  0.40653562  0.12450350  0.43608088    -0.80700
O37         O  0.34764216  0.13175754  0.30297990    -0.80700
C38         C  0.35295624  0.16179898  0.30320918     1.09000
C39         C  0.39663235  0.15199153  0.44481365     1.08900
C40         C  0.29912249  0.15616827  0.35121194     1.09000
C41         C  0.43987940  0.16020670  0.39337133     1.08900
O42         O  0.44352443  0.11937909  0.34551702    -0.80700
O43         O  0.31319715  0.11429416  0.40141130    -0.80800
O44         O  0.37896414  0.07338206  0.32355334    -0.80700
O45         O  0.37054056  0.08024081  0.42990070    -0.80700
O46         O  0.34034532  0.12401077  0.43677025    -0.80700
O47         O  0.40143336  0.11649135  0.30268367    -0.80700
O48         O  0.43174035  0.07438186  0.37091895    -0.80700
O49         O  0.32856620  0.07171016  0.37371820    -0.80700
Co50       Co  0.40614140  0.14636806  0.33863333     1.51500
Co51       Co  0.34789844  0.14581442  0.39571853     1.51700
Co52       Co  0.34284538  0.10077361  0.33837805     1.51600
Co53       Co  0.39967045  0.10099890  0.39618121     1.51500
O54         O  0.37421561  0.12344518  0.36589170    -1.42600
C55         C  0.44984519  0.09062441  0.35202595     1.08900
C56         C  0.30948493  0.08515259  0.39345138     1.09000
C57         C  0.39691270  0.08637664  0.30288099     1.08900
C58         C  0.35039757  0.09691537  0.44652546     1.08900
O59         O  0.33432410  0.37225203  0.18027867    -0.80700
O60         O  0.43140781  0.37863004  0.17108349    -0.80700
O61         O  0.35110389  0.30679625  0.14468211    -0.80700
O62         O  0.40571956  0.44005454  0.13590563    -0.80700
O63         O  0.38193019  0.32864435  0.18133533    -0.80800
O64         O  0.38241741  0.42053646  0.17894466    -0.80700
O65         O  0.44692199  0.39886892  0.12572250    -0.80700
O66         O  0.30897814  0.34938779  0.14138298    -0.80700
C67         C  0.31019567  0.35779742  0.17032723     1.09000
C68         C  0.45129513  0.39488522  0.15508610     1.08900
C69         C  0.36195410  0.30714592  0.17282000     1.09000
C70         C  0.39974847  0.44149357  0.16547710     1.08900
O71         O  0.35201038  0.44432981  0.12475724    -0.80700
O72         O  0.40223898  0.30372583  0.12367085    -0.80800
O73         O  0.33010803  0.37195562  0.07915201    -0.80700
O74         O  0.41707702  0.37341222  0.07066935    -0.80700
O75         O  0.44172248  0.34671285  0.10902860    -0.80700
O76         O  0.31157854  0.40025572  0.11960559    -0.80700
O77         O  0.36895431  0.42685000  0.07914502    -0.80700
O78         O  0.37776063  0.31948630  0.08117165    -0.80700
Co79       Co  0.34786375  0.40571261  0.15052370     1.51500
Co80       Co  0.41149397  0.34305668  0.14639195     1.51700
Co81       Co  0.34510338  0.34003353  0.11104264     1.51600
Co82       Co  0.40621887  0.40637485  0.10307281     1.51500
O83         O  0.37770751  0.37370633  0.12755869    -1.42600
C84         C  0.35352792  0.44771312  0.09531671     1.08900
C85         C  0.39626739  0.29969699  0.09490501     1.09000
C86         C  0.31044174  0.39221761  0.09034582     1.08900
C87         C  0.43952915  0.35501467  0.07981775     1.08900
C88         C  0.27427566  0.50100454  0.02336969     0.01700
C89         C  0.25282069  0.47445075  0.02152954     0.01700
C90         C  0.22835150  0.47452975  0.99751609     0.01700
C91         C  0.22552434  0.50104307  0.47587719     0.01700
C92         C  0.24906799  0.02614144  0.47688033     0.01700
C93         C  0.27250279  0.02701833  0.00136748     0.01700
C94         C  0.31251625  0.02763277  0.10018264     0.02600
C95         C  0.29227671  0.02591343  0.07443782    -0.13600
C96         C  0.29714786  0.50304961  0.05034405     0.00100
C97         C  0.32274276  0.48118298  0.05383737    -0.12100
C98         C  0.33599269  0.47678492  0.08396499     0.02600
C99         C  0.32851236  0.49993812  0.10723041    -0.11500
H100        H  0.27164583  0.04098863  0.07433214     0.08200
H101        H  0.32989985  0.46603818  0.03453203     0.05700
H102        H  0.33758653  0.49837018  0.13085633     0.05500
C103        C  0.31509504  0.10382328  0.02820750     0.02600
C104        C  0.33249123  0.11006393  0.50063761    -0.13600
C105        C  0.33599838  0.08685200  0.47694453     0.00100
C106        C  0.32001131  0.05787894  0.48053532    -0.12100
C107        C  0.29542293  0.05487837  0.50319370     0.02600
C108        C  0.29276599  0.07896440  0.02674519    -0.11500
H109        H  0.34626658  0.13180068  0.49927507     0.08200
H110        H  0.32497573  0.03886230  0.46422238     0.05700
H111        H  0.27375049  0.07894066  0.04376131     0.05500
C112        C  0.14955320  0.03168921  0.43382268     0.02600
C113        C  0.13965453  0.50435512  0.41942359    -0.13600
C114        C  0.16023234  0.47894212  0.41643354     0.00100
C115        C  0.19044449  0.48027732  0.43056430    -0.12100
C116        C  0.19700573  0.50375926  0.45358126     0.02600
C117        C  0.17495198  0.02966543  0.45539865    -0.11500
H118        H  0.11725004  0.50422308  0.40691829     0.08200
H119        H  0.20788691  0.46270807  0.42434596     0.05700
H120        H  0.17648879  0.04735002  0.47361439     0.05500
C121        C  0.22718320  0.09349832  0.42062488     0.02600
C122        C  0.22825724  0.07502444  0.44800163    -0.13600
C123        C  0.25068686  0.04992115  0.45032561     0.00100
C124        C  0.27516155  0.04770720  0.42704627    -0.12100
C125        C  0.27875481  0.07211149  0.40465073     0.02600
C126        C  0.25367762  0.09347181  0.40110185    -0.11500
H127        H  0.21166420  0.08001814  0.46668625     0.08200
H128        H  0.29229827  0.02861029  0.42772526     0.05700
H129        H  0.25561196  0.11245878  0.38424697     0.05500
C130        C  0.22810818  0.41754105  0.08872406     0.02600
C131        C  0.25403967  0.39723602  0.09009760    -0.13600
C132        C  0.28157418  0.40308583  0.07324823     0.00100
C133        C  0.28032812  0.42576865  0.04840284    -0.12100
C134        C  0.25442307  0.44790501  0.04655534     0.02600
C135        C  0.23033330  0.44525631  0.07012351    -0.11500
H136        H  0.25364628  0.37726378  0.10635052     0.08200
H137        H  0.29945155  0.42642501  0.03143199     0.05700
H138        H  0.21276046  0.46363949  0.07304461     0.05500
C139        C  0.16428132  0.41665557  0.02390733     0.02600
C140        C  0.16145491  0.39682902  0.49813313    -0.13600
C141        C  0.17922621  0.40149311  0.47107288     0.00100
C142        C  0.20387201  0.42442062  0.47184384    -0.12100
C143        C  0.20444756  0.44763981  0.99650072     0.02600
C144        C  0.18168063  0.44479930  0.02092726    -0.11500
H145        H  0.14313483  0.37894913  0.49853070     0.08200
H146        H  0.22136343  0.42477614  0.45312800     0.05700
H147        H  0.17862334  0.46335042  0.03817895     0.05500
C148        C  0.02352579  0.24554233  0.47497362     0.01700
C149        C  0.49862773  0.22250361  0.47415232     0.01700
C150        C  0.47506959  0.22185107  0.49843490     0.01700
C151        C  0.47433401  0.24684439  0.02109292     0.01700
C152        C  0.49779856  0.27130007  0.02083225     0.01700
C153        C  0.02376908  0.26983086  0.49887647     0.01700
C154        C  0.09337693  0.32391303  0.47529903     0.02600
C155        C  0.06182369  0.31239305  0.47691037    -0.13600
C156        C  0.05248377  0.29170334  0.50175598     0.00100
C157        C  0.07248521  0.29080413  0.02857985    -0.12100
C158        C  0.10068258  0.30880321  0.02920747     0.02600
C159        C  0.11340952  0.31897957  0.00062910    -0.11500
H160        H  0.04544607  0.31810736  0.45823046     0.08200
H161        H  0.06699479  0.27603027  0.04857240     0.05700
H162        H  0.13727371  0.32840394  0.00003825     0.05500
C163        C  0.08276791  0.26932474  0.41158261     0.02600
C164        C  0.05304687  0.26556242  0.42640210    -0.13600
C165        C  0.05029960  0.24331023  0.45139021     0.00100
C166        C  0.07430155  0.21979558  0.45445033    -0.12100
C167        C  0.09968392  0.21888902  0.43296557     0.02600
C168        C  0.10650958  0.24681556  0.41710065    -0.11500
H169        H  0.03415308  0.28240912  0.42189671     0.08200
H170        H  0.07408452  0.20298333  0.47368514     0.05700
H171        H  0.12957600  0.24901114  0.40599457     0.05500
C172        C  0.46827147  0.34797210  0.06028921     0.02600
C173        C  0.49583292  0.35465554  0.07673121    -0.13600
C174        C  0.01543676  0.32960477  0.08740121     0.00100
C175        C  0.01314190  0.30043120  0.07135852    -0.12100
C176        C  0.49434185  0.29855891  0.04366201     0.02600
C177        C  0.47020395  0.32193839  0.03955199    -0.11500
H178        H  0.49913415  0.37858629  0.08409737     0.08200
H179        H  0.02761886  0.28057602  0.07863163     0.05700
H180        H  0.45330612  0.32009859  0.02056419     0.05500
C181        C  0.41193758  0.27059183  0.08163772     0.02600
C182        C  0.42650093  0.26760941  0.05193823    -0.13600
C183        C  0.45174387  0.24531045  0.04814459     0.00100
C184        C  0.45814474  0.22321350  0.07241567    -0.12100
C185        C  0.43751439  0.22042732  0.09782942     0.02600
C186        C  0.41809229  0.24662785  0.10388839    -0.11500
H187        H  0.42017053  0.28378925  0.03325222     0.08200
H188        H  0.47889454  0.20822638  0.07164423     0.05700
H189        H  0.40355332  0.24586618  0.12458376     0.05500
C190        C  0.02219448  0.15346976  0.42163554     0.02600
C191        C  0.02085349  0.17383246  0.44742320    -0.13600
C192        C  0.99772663  0.19822111  0.44847453     0.00100
C193        C  0.47380571  0.19884380  0.42504960    -0.12100
C194        C  0.47047202  0.17272936  0.40480455     0.02600
C195        C  0.99538369  0.15097508  0.40306997    -0.11500
H196        H  0.03789707  0.17085377  0.46592403     0.08200
H197        H  0.45658297  0.21785951  0.42441663     0.05700
H198        H  0.99367691  0.13041236  0.38811905     0.05500
C199        C  0.41078839  0.16282345  0.47466634     0.02600
C200        C  0.42722443  0.19164176  0.47762733    -0.13600
C201        C  0.45161324  0.19457742  0.50028101     0.00100
C202        C  0.45386727  0.17063300  0.02391216    -0.12100
C203        C  0.43132202  0.14614249  0.02551366     0.02600
C204        C  0.41385202  0.13990114  0.49850684    -0.11500
H205        H  0.42273323  0.21048501  0.46097505     0.08200
H206        H  0.47255467  0.17063308  0.04103240     0.05700
H207        H  0.39987900  0.11826398  0.49761214     0.05500
C208        C  0.27183574  0.22822409  0.24771475     0.01700
C209        C  0.24703269  0.22711847  0.27062221     0.01700
C210        C  0.22248084  0.25020991  0.27003895     0.01700
C211        C  0.22198649  0.27440414  0.24619667     0.01700
C212        C  0.24885085  0.27752254  0.22523650     0.01700
C213        C  0.27315734  0.25354423  0.22512861     0.01700
C214        C  0.27009242  0.16714769  0.33418584     0.02600
C215        C  0.24785952  0.14329348  0.32646412    -0.13600
C216        C  0.22050055  0.15029235  0.31001625     0.00100
C217        C  0.22193568  0.17606296  0.28938288    -0.12100
C218        C  0.24517087  0.19992345  0.29366795     0.02600
C219        C  0.26649079  0.19697524  0.31949604    -0.11500
H220        H  0.24946443  0.11954124  0.33595099     0.08200
H221        H  0.20528271  0.17716515  0.27020540     0.05700
H222        H  0.28180487  0.21641283  0.32603538     0.05500
C223        C  0.15023325  0.32303558  0.21585911     0.02600
C224        C  0.14468078  0.34195135  0.24219705    -0.13600
C225        C  0.16108538  0.33756931  0.26982302     0.00100
C226        C  0.18786082  0.31797707  0.27000867    -0.12100
C227        C  0.19404722  0.29720307  0.24457193     0.02600
C228        C  0.17290027  0.29823369  0.21829912    -0.11500
H229        H  0.12877000  0.36181799  0.24086974     0.08200
H230        H  0.20345317  0.31903824  0.28997854     0.05700
H231        H  0.17504962  0.28116157  0.19939614     0.05500
C232        C  0.35384292  0.27822677  0.19170489     0.02600
C233        C  0.36104379  0.25010862  0.17593022    -0.13600
C234        C  0.33731439  0.22831544  0.16611141     0.00100
C235        C  0.30625142  0.23333351  0.17799916    -0.12100
C236        C  0.30143778  0.25563237  0.20305911     0.02600
C237        C  0.32611141  0.27745590  0.20979308    -0.11500
H238        H  0.38553894  0.24714763  0.16945030     0.08200
H239        H  0.28719229  0.21785580  0.17069607     0.05700
H240        H  0.32555612  0.29186395  0.23072336     0.05500
C241        C  0.22929159  0.34499511  0.16909114     0.02600
C242        C  0.25417064  0.36595021  0.17405048    -0.13600
C243        C  0.28104447  0.35503828  0.18947287     0.00100
C244        C  0.27711571  0.32923091  0.21021142    -0.12100
C245        C  0.25251319  0.30692097  0.20511891     0.02600
C246        C  0.23084127  0.31394408  0.18105097    -0.11500
H247        H  0.25486575  0.38840972  0.16140719     0.08200
H248        H  0.29264199  0.32745716  0.23011906     0.05700
H249        H  0.21440287  0.29628469  0.17280742     0.05500
C250        C  0.17611444  0.27108827  0.34437106     0.02600
C251        C  0.20139014  0.26900777  0.32276727    -0.13600
C252        C  0.19808059  0.24938412  0.29572213     0.00100
C253        C  0.17262311  0.22745821  0.29456482    -0.12100
C254        C  0.15160614  0.22548242  0.32002157     0.02600
C255        C  0.15050389  0.25061052  0.34071690    -0.11500
H256        H  0.22151005  0.28487455  0.32494269     0.08200
H257        H  0.16958420  0.21160155  0.27485392     0.05700
H258        H  0.12972976  0.25270096  0.35564667     0.05500
C259        C  0.34247521  0.17871273  0.27458196     0.02600
C260        C  0.34847563  0.16202915  0.24727756    -0.13600
C261        C  0.32777445  0.16211089  0.22170096     0.00100
C262        C  0.30020625  0.18070292  0.22372727    -0.12100
C263        C  0.29742498  0.20345920  0.24837848     0.02600
C264        C  0.31947192  0.20262934  0.27362376    -0.15100
H265        H  0.36974826  0.14779772  0.24671485     0.08200
H266        H  0.28277096  0.17955936  0.20517338     0.05700
H267        H  0.31861251  0.21991887  0.29234316     0.05500
C268        C  0.02914581  0.49864658  0.27153322     0.01700
C269        C  0.02807150  0.47361556  0.24859498     0.01700
C270        C  0.00569284  0.47571517  0.22329237     0.01700
C271        C  0.48202096  0.50016378  0.22347145     0.01700
C272        C  0.48194016  0.02342945  0.24814254     0.01700
C273        C  0.00570163  0.02283247  0.27183178     0.01700
C274        C  0.02948570  0.09943522  0.31183328     0.02600
C275        C  0.00198860  0.10503094  0.32905327    -0.13600
C276        C  0.48010058  0.08035935  0.33622551     0.00100
C277        C  0.48495426  0.05091636  0.32119368    -0.12100
C278        C  0.00693980  0.04912868  0.29553868     0.02600
C279        C  0.02900915  0.07398521  0.29101207    -0.11500
H280        H  0.99954046  0.12855348  0.33895389     0.08200
H281        H  0.46982337  0.03100804  0.32699729     0.05700
H282        H  0.04558460  0.07388834  0.27153740     0.05500
C283        C  0.10116776  0.02498364  0.31907687     0.02600
C284        C  0.07934113  0.02274374  0.29432316    -0.13600
C285        C  0.05476191  0.49994130  0.29569109     0.00100
C286        C  0.05336748  0.48006811  0.32232469    -0.12100
C287        C  0.08004161  0.47724369  0.34140686     0.02600
C288        C  0.10451032  0.49892842  0.33841527    -0.11500
H289        H  0.08097680  0.03928806  0.27497029     0.08200
H290        H  0.03277988  0.46573139  0.32736964     0.05700
H291        H  0.12499919  0.49745601  0.35367196     0.05500
C292        C  0.06059784  0.39422164  0.27928501     0.02600
C293        C  0.04401630  0.42310246  0.27807424    -0.13600
C294        C  0.04791024  0.44375447  0.25208133     0.00100
C295        C  0.06853285  0.43346255  0.22789732    -0.12100
C296        C  0.07624620  0.40095537  0.22495786     0.02600
C297        C  0.07079713  0.38087191  0.25078392    -0.11500
H298        H  0.02758523  0.42823625  0.29681376     0.08200
H299        H  0.07703569  0.45009544  0.21045427     0.05700
H300        H  0.07871982  0.35638294  0.25030846     0.05500
C301        C  0.42488243  0.08792148  0.22241141     0.02600
C302        C  0.45367394  0.07162804  0.22571224    -0.13600
C303        C  0.45617609  0.04798386  0.24954329     0.00100
C304        C  0.43308394  0.04719154  0.27412364    -0.12100
C305        C  0.40876612  0.06976558  0.27458783     0.02600
C306        C  0.40293470  0.08624778  0.24720820    -0.11500
H307        H  0.47244820  0.07506733  0.20862632     0.08200
H308        H  0.43381221  0.02948070  0.29248830     0.05700
H309        H  0.38078157  0.09904385  0.24614831     0.05500
C310        C  0.42376544  0.02433327  0.15836898     0.02600
C311        C  0.40345654  0.49775417  0.15990960    -0.13600
C312        C  0.40884603  0.47202526  0.17972173     0.00100
C313        C  0.43178283  0.47526987  0.20309342    -0.12100
C314        C  0.45512014  0.49939017  0.20020608     0.02600
C315        C  0.45189866  0.02327610  0.17612307    -0.11500
H316        H  0.38535919  0.49600637  0.14231162     0.08200
H317        H  0.43232142  0.45842915  0.22230590     0.05700
H318        H  0.46982634  0.04115914  0.17225497     0.05500
C319        C  0.48075471  0.40934398  0.16751990     0.02600
C320        C  0.00621526  0.40885708  0.14716964    -0.13600
C321        C  0.03228504  0.42893935  0.15001124     0.00100
C322        C  0.03055629  0.45321921  0.17284310    -0.12100
C323        C  0.00642543  0.45195673  0.19670673     0.02600
C324        C  0.48308905  0.42771544  0.19481315    -0.11500
H325        H  0.00718355  0.38992387  0.13098404     0.08200
H326        H  0.04894675  0.47116722  0.17370577     0.05700
H327        H  0.46639787  0.42375349  0.21373045     0.05500
O328        O  0.12344487  0.07711584  0.32268776    -0.80700
O329        O  0.12676515  0.17397550  0.32251113    -0.80700
O330        O  0.05855977  0.09810377  0.35831245    -0.80700
O331        O  0.19186029  0.15202435  0.35741950    -0.80700
O332        O  0.07971937  0.12595790  0.31905238    -0.80800
O333        O  0.17011859  0.12452937  0.31862254    -0.80700
O334        O  0.14952857  0.19357738  0.36452453    -0.80700
O335        O  0.10095644  0.05615632  0.36442419    -0.80700
C336        C  0.10800222  0.05486049  0.33523810     1.09000
C337        C  0.14284125  0.19554200  0.33540410     1.08900
C338        C  0.05842359  0.10724781  0.32950236     1.09000
C339        C  0.19158168  0.14313625  0.32849305     1.08900
O340        O  0.19547403  0.10013891  0.37664704    -0.80700
O341        O  0.05457129  0.15017495  0.37737271    -0.80800
O342        O  0.12403370  0.08176022  0.42372025    -0.80700
O343        O  0.12611249  0.16882471  0.42358670    -0.80700
O344        O  0.09816602  0.19110681  0.38507540    -0.80700
O345        O  0.15194483  0.05908726  0.38531768    -0.80700
O346        O  0.17649776  0.12222097  0.41942838    -0.80700
O347        O  0.07385772  0.12749473  0.41963406    -0.80700
Co348      Co  0.15687870  0.09299655  0.35101306     1.51500
Co349      Co  0.09322894  0.15743316  0.35116175     1.51700
Co350      Co  0.09237730  0.09397612  0.39145821     1.51600
Co351      Co  0.15798005  0.15597891  0.39124468     1.51500
O352        O  0.12507822  0.12516378  0.37123344    -1.42600
C353        C  0.19785848  0.10582185  0.40583063     1.08900
C354        C  0.05212660  0.14345092  0.40639697     1.09000
C355        C  0.14293984  0.06018467  0.41437516     1.08900
C356        C  0.10719991  0.19033395  0.41398411     1.08900
O357        O  0.37901175  0.05582607  0.15034581    -0.80700
O358        O  0.39227581  0.19044982  0.09767168    -0.80700
O359        O  0.42479090  0.12074797  0.07642026    -0.80700
O360        O  0.42713155  0.11664718  0.17162397    -0.80700
O361        O  0.38556978  0.14927923  0.05665087    -0.80800
O362        O  0.38204527  0.09784921  0.19089047    -0.80700
O363        O  0.43284673  0.16719896  0.12159455    -0.80700
O364        O  0.42200897  0.07222059  0.12517841    -0.80700
C365        C  0.40855586  0.05284860  0.14415889     1.09000
C366        C  0.42150682  0.18994275  0.10491885     1.08900
C367        C  0.41408481  0.13904568  0.05509848     1.09000
C368        C  0.41188415  0.10122391  0.19286388     1.08900
O369        O  0.32619784  0.13152564  0.17229709    -0.80700
O370        O  0.32346251  0.12957144  0.07956385    -0.80800
O371        O  0.35983753  0.05624006  0.09909567    -0.80700
O372        O  0.37816473  0.19438151  0.15059924    -0.80700
O373        O  0.33235573  0.18088732  0.12991252    -0.80700
O374        O  0.32033529  0.08047759  0.12357588    -0.80700
O375        O  0.37124796  0.15161789  0.19058161    -0.80700
O376        O  0.36117251  0.09949704  0.05801984    -0.80700
Co377      Co  0.35204657  0.09478278  0.15588642     1.51500
Co378      Co  0.35782667  0.15918790  0.09417792     1.51700
Co379      Co  0.39235014  0.09039028  0.09267535     1.51600
Co380      Co  0.40184398  0.15375115  0.15518071     1.51500
O381        O  0.37597319  0.12461437  0.12444151    -1.42600
C382        C  0.34128929  0.14808777  0.19265190     1.08900
C383        C  0.33292482  0.11062100  0.05774002     1.09000
C384        C  0.33068727  0.05717453  0.10711943     1.08900
C385        C  0.34875539  0.19964655  0.14759072     1.08900
O386        O  0.19745334  0.34919222  0.12338811    -0.80700
O387        O  0.05437135  0.32404800  0.13013601    -0.80700
O388        O  0.15153706  0.36509212  0.17986131    -0.80700
O389        O  0.10589283  0.35959222  0.05190507    -0.80700
O390        O  0.11588470  0.32574489  0.17006206    -0.80800
O391        O  0.12010227  0.31963106  0.08139180    -0.80700
O392        O  0.05925371  0.36190578  0.09283767    -0.80700
O393        O  0.18220057  0.37508894  0.16743140    -0.80700
C394        C  0.20156458  0.35634148  0.15263863     1.09000
C395        C  0.04405384  0.33840344  0.10526320     1.08900
C396        C  0.13903091  0.33738586  0.18591512     1.09000
C397        C  0.10832603  0.32978857  0.05606137     1.08900
O398        O  0.16112527  0.37444126  0.05958109    -0.80700
O399        O  0.07884309  0.37027855  0.17680792    -0.80800
O400        O  0.17873240  0.42064885  0.11841296    -0.80700
O401        O  0.07924949  0.42472426  0.11548537    -0.80700
O402        O  0.06496252  0.38499086  0.14685939    -0.80700
O403        O  0.19466252  0.37437224  0.09876357    -0.80700
O404        O  0.13241029  0.41833237  0.07073926    -0.80700
O405        O  0.11875654  0.40283456  0.18902440    -0.80700
Co406      Co  0.15668727  0.34495158  0.09751052     1.51500
Co407      Co  0.09308620  0.34832303  0.13466121     1.51700
Co408      Co  0.14701568  0.40451945  0.15109513     1.51600
Co409      Co  0.09682666  0.39172672  0.08568235     1.51500
O410        O  0.12676617  0.37446180  0.12023045    -1.42600
C411        C  0.15257816  0.40342698  0.05365430     1.08900
C412        C  0.09277050  0.38961093  0.19627294     1.09000
C413        C  0.19852834  0.40450349  0.10250011     1.08900
C414        C  0.06164761  0.41378854  0.13750461     1.08900
O415        O  0.17956394  0.31046054  0.88646137    -0.80700
O416        O  0.15066465  0.44397203  0.87353219    -0.80700
O417        O  0.12513812  0.33321294  0.81155267    -0.80700
O418        O  0.13601203  0.40536870  0.93655709    -0.80700
O419        O  0.15486055  0.37654638  0.80951293    -0.80800
O420        O  0.17265558  0.36663477  0.92647749    -0.80700
O421        O  0.12946766  0.43266550  0.92119925    -0.80700
O422        O  0.14154283  0.31223533  0.84934742    -0.80700
C423        C  0.16720004  0.30017472  0.86074287     1.09000
C424        C  0.14685234  0.45020067  0.90268638     1.08900
C425        C  0.14661654  0.34980030  0.79868088     1.09000
C426        C  0.16278394  0.39050734  0.94238882     1.08900
O427        O  0.12739108  0.33112257  0.93057073    -0.80700
O428        O  0.10283035  0.40533427  0.81564376    -0.80800
O429        O  0.07773332  0.31164669  0.87345956    -0.80700
O430        O  0.08706485  0.44039262  0.88273107    -0.80700
O431        O  0.10558615  0.42979091  0.83413779    -0.80700
O432        O  0.11999542  0.31000026  0.90428889    -0.80700
O433        O  0.09184757  0.36895898  0.94266572    -0.80700
O434        O  0.07394630  0.36022834  0.82170785    -0.80700
Co435      Co  0.15084009  0.34583794  0.89001257     1.51500
Co436      Co  0.14394443  0.40551468  0.84552699     1.51700
Co437      Co  0.10432108  0.34313167  0.85167531     1.51600
Co438      Co  0.09503358  0.40136470  0.90915749     1.51500
O439        O  0.12130757  0.37781089  0.87727671    -1.42600
C440        C  0.10536092  0.34298321  0.94866340     1.08900
C441        C  0.07946717  0.38607528  0.80739871     1.09000
C442        C  0.09309039  0.29836170  0.89527779     1.08900
C443        C  0.08962660  0.44697892  0.85362990     1.08900
O444        O  0.37055168  0.17436965  0.82423125    -0.80700
O445        O  0.37661416  0.16808284  0.92792952    -0.80700
O446        O  0.30484001  0.12696224  0.84615121    -0.80700
O447        O  0.43539052  0.13117460  0.90149940    -0.80700
O448        O  0.31690272  0.17247475  0.86995053    -0.80800
O449        O  0.42080120  0.17435824  0.87434103    -0.80700
O450        O  0.40653412  0.12448012  0.93609082    -0.80700
O451        O  0.34764604  0.13173270  0.80298745    -0.80700
C452        C  0.35295921  0.16177412  0.80321626     1.09000
C453        C  0.39663271  0.15196974  0.94482119     1.08900
C454        C  0.29912701  0.15615062  0.85121704     1.09000
C455        C  0.43988436  0.16017880  0.89338328     1.08900
O456        O  0.44352594  0.11935587  0.84552640    -0.80700
O457        O  0.31319442  0.11427377  0.90141802    -0.80800
O458        O  0.37896332  0.07335761  0.82356113    -0.80700
O459        O  0.37053864  0.08021523  0.92990864    -0.80700
O460        O  0.34034504  0.12398675  0.93677599    -0.80700
O461        O  0.40143702  0.11646584  0.80269245    -0.80700
O462        O  0.43174551  0.07435844  0.87092915    -0.80700
O463        O  0.32856035  0.07168811  0.87372587    -0.80700
Co464      Co  0.40614370  0.14634331  0.83864292     1.51500
Co465      Co  0.34789983  0.14579066  0.89572557     1.51700
Co466      Co  0.34284509  0.10075073  0.83838588     1.51600
Co467      Co  0.39967184  0.10097341  0.89619111     1.51500
O468        O  0.37421726  0.12341991  0.86590034    -1.42600
C469        C  0.44984993  0.09060270  0.85203677     1.08900
C470        C  0.30947934  0.08513230  0.89345849     1.09000
C471        C  0.39691352  0.08635135  0.80288902     1.08900
C472        C  0.35039466  0.09689066  0.94653157     1.08900
O473        O  0.33432451  0.37225522  0.68028340    -0.80700
O474        O  0.43141049  0.37863556  0.67109357    -0.80700
O475        O  0.35110900  0.30679949  0.64469878    -0.80700
O476        O  0.40572409  0.44005808  0.63591419    -0.80700
O477        O  0.38193475  0.32865174  0.68135029    -0.80800
O478        O  0.38241807  0.42053965  0.67895144    -0.80700
O479        O  0.44692568  0.39887145  0.62573162    -0.80700
O480        O  0.30898264  0.34938854  0.64138649    -0.80700
C481        C  0.31019757  0.35779950  0.67033025     1.09000
C482        C  0.45129909  0.39488752  0.65509513     1.08900
C483        C  0.36195989  0.30715162  0.67283660     1.09000
C484        C  0.39975075  0.44149669  0.66548542     1.08900
O485        O  0.35201648  0.44433032  0.62476212    -0.80700
O486        O  0.40224494  0.30372397  0.62369234    -0.80800
O487        O  0.33011713  0.37194908  0.57915702    -0.80700
O488        O  0.41707952  0.37341215  0.57068071    -0.80700
O489        O  0.44172525  0.34671427  0.60904125    -0.80700
O490        O  0.31158447  0.40025508  0.61960596    -0.80700
O491        O  0.36895825  0.42684794  0.57915128    -0.80700
O492        O  0.37777351  0.31947856  0.58118816    -0.80700
Co493      Co  0.34786653  0.40571433  0.65052844     1.51500
Co494      Co  0.41149813  0.34305989  0.64640583     1.51700
Co495      Co  0.34511140  0.34003098  0.61105268     1.51600
Co496      Co  0.40622285  0.40637622  0.60308179     1.51500
O497        O  0.37771217  0.37370727  0.62756824    -1.42600
C498        C  0.35353049  0.44771072  0.59532145     1.08900
C499        C  0.39627972  0.29969142  0.59492618     1.09000
C500        C  0.31044912  0.39221195  0.59034724     1.08900
C501        C  0.43953125  0.35501502  0.57983007     1.08900
C502        C  0.27427808  0.50099068  0.52336454     0.01700
C503        C  0.25282381  0.47443676  0.52152452     0.01700
C504        C  0.22835566  0.47451593  0.49751038     0.01700
C505        C  0.22551743  0.50105862  0.97588534     0.01700
C506        C  0.24904863  0.02613241  0.97688909     0.01700
C507        C  0.27251979  0.02703051  0.50136127     0.01700
C508        C  0.31253987  0.02764242  0.60017386     0.02600
C509        C  0.29229759  0.02592338  0.57443121    -0.13600
C510        C  0.29714583  0.50303767  0.55034151     0.00100
C511        C  0.32274319  0.48117441  0.55383826    -0.12100
C512        C  0.33598829  0.47677728  0.58396821     0.02600
C513        C  0.32849859  0.49992724  0.60723369    -0.11500
H514        H  0.27166636  0.04099798  0.57432826     0.08200
H515        H  0.32990562  0.46603112  0.53453358     0.05700
H516        H  0.33756913  0.49836077  0.63086107     0.05500
C517        C  0.31510727  0.10383876  0.52820710     0.02600
C518        C  0.33248309  0.11004385  0.00063971    -0.13600
C519        C  0.33599109  0.08682938  0.97694949     0.00100
C520        C  0.31999914  0.05785890  0.98054070    -0.12100
C521        C  0.29540833  0.05486350  0.00319755     0.02600
C522        C  0.29278075  0.07897704  0.52674419    -0.11500
H523        H  0.34626226  0.13177827  0.99927745     0.08200
H524        H  0.32496237  0.03884032  0.96422958     0.05700
H525        H  0.27376564  0.07895115  0.54376060     0.05500
C526        C  0.14953535  0.03170211  0.93383719     0.02600
C527        C  0.13964701  0.50437133  0.91943044    -0.13600
C528        C  0.16022339  0.47895679  0.91644159     0.00100
C529        C  0.19043540  0.48029142  0.93057333    -0.12100
C530        C  0.19699815  0.50377434  0.95358925     0.02600
C531        C  0.17493303  0.02967181  0.95541429    -0.11500
H532        H  0.11724263  0.50424006  0.90692503     0.08200
H533        H  0.20787737  0.46272188  0.92435501     0.05700
H534        H  0.17647554  0.04735723  0.97362874     0.05500
C535        C  0.22717862  0.09349329  0.92062963     0.02600
C536        C  0.22824731  0.07501897  0.94800654    -0.13600
C537        C  0.25067117  0.04991030  0.95033186     0.00100
C538        C  0.27514736  0.04769188  0.92705393    -0.12100
C539        C  0.27874638  0.07209463  0.90465697     0.02600
C540        C  0.25367271  0.09345846  0.90110563    -0.11500
H541        H  0.21165544  0.08001782  0.96669072     0.08200
H542        H  0.29228074  0.02859207  0.92773486     0.05700
H543        H  0.25561012  0.11244174  0.88424673     0.05500
C544        C  0.22811302  0.41752692  0.58872079     0.02600
C545        C  0.25404589  0.39722359  0.59009563    -0.13600
C546        C  0.28158083  0.40307542  0.57324722     0.00100
C547        C  0.28033351  0.42575732  0.54840083    -0.12100
C548        C  0.25442636  0.44789111  0.54655099     0.02600
C549        C  0.23033641  0.44524145  0.57011889    -0.11500
H550        H  0.25365348  0.37725217  0.60634957     0.08200
H551        H  0.29945810  0.42641575  0.53143131     0.05700
H552        H  0.21276256  0.46362365  0.57303961     0.05500
C553        C  0.16428829  0.41664125  0.52390457     0.02600
C554        C  0.16144674  0.39684479  0.99813489    -0.13600
C555        C  0.17922017  0.40150724  0.97107559     0.00100
C556        C  0.20386780  0.42443337  0.97184822    -0.12100
C557        C  0.20445118  0.44762721  0.49649561     0.02600
C558        C  0.18168468  0.44478666  0.52092252    -0.11500
H559        H  0.14312523  0.37896620  0.99853152     0.08200
H560        H  0.22135974  0.42478865  0.95313278     0.05700
H561        H  0.17862649  0.46333859  0.53817325     0.05500
C562        C  0.02352403  0.24554912  0.97497647     0.01700
C563        C  0.49863090  0.22248972  0.97415848     0.01700
C564        C  0.47507082  0.22183940  0.99844041     0.01700
C565        C  0.47433388  0.24685139  0.52109144     0.01700
C566        C  0.49779760  0.27130739  0.52083207     0.01700
C567        C  0.02376761  0.26983611  0.99888086     0.01700
C568        C  0.09337169  0.32392387  0.97530223     0.02600
C569        C  0.06181934  0.31240118  0.97691381    -0.13600
C570        C  0.05248120  0.29171054  0.00175954     0.00100
C571        C  0.07248724  0.29079543  0.52857664    -0.12100
C572        C  0.10068620  0.30879197  0.52920453     0.02600
C573        C  0.11341438  0.31896667  0.50062599    -0.11500
H574        H  0.04544101  0.31811480  0.95823439     0.08200
H575        H  0.06699527  0.27602218  0.54856923     0.05700
H576        H  0.13727958  0.32838833  0.50003509     0.05500
C577        C  0.08275889  0.26933815  0.91157956     0.02600
C578        C  0.05303978  0.26557370  0.92640270    -0.13600
C579        C  0.05029663  0.24332019  0.95139046     0.00100
C580        C  0.07430144  0.21980750  0.95444750    -0.12100
C581        C  0.09968231  0.21890400  0.93296048     0.02600
C582        C  0.10650252  0.24683046  0.91709378    -0.11500
H583        H  0.03414445  0.28241940  0.92190000     0.08200
H584        H  0.07408800  0.20299463  0.97368175     0.05700
H585        H  0.12956707  0.24902782  0.90598403     0.05500
C586        C  0.46827216  0.34797122  0.56030142     0.02600
C587        C  0.49583476  0.35465310  0.57674181    -0.13600
C588        C  0.01543930  0.32960029  0.58739608     0.00100
C589        C  0.01314255  0.30042741  0.57135253    -0.12100
C590        C  0.49434201  0.29856184  0.54366586     0.02600
C591        C  0.47020159  0.32193944  0.53956206    -0.11500
H592        H  0.49913703  0.37858507  0.58411089     0.08200
H593        H  0.02761758  0.28057084  0.57862565     0.05700
H594        H  0.45329830  0.32009815  0.52057918     0.05500
C595        C  0.41196241  0.27059026  0.58166221     0.02600
C596        C  0.42650626  0.26760418  0.55195338    -0.13600
C597        C  0.45175045  0.24530884  0.54814829     0.00100
C598        C  0.45816385  0.22321119  0.57241541    -0.12100
C599        C  0.43755086  0.22042747  0.59784317     0.02600
C600        C  0.41814123  0.24663344  0.60391633    -0.11500
H601        H  0.42016483  0.28378230  0.53326933     0.08200
H602        H  0.47891513  0.20822642  0.57163482     0.05700
H603        H  0.40362961  0.24587793  0.62463027     0.05500
C604        C  0.02219819  0.15347990  0.92163836     0.02600
C605        C  0.02085545  0.17384171  0.94742628    -0.13600
C606        C  0.99772610  0.19822743  0.94847798     0.00100
C607        C  0.47380969  0.19882070  0.92505889    -0.12100
C608        C  0.47047683  0.17270151  0.90481935     0.02600
C609        C  0.99538653  0.15097954  0.90307531    -0.11500
H610        H  0.03789974  0.17086502  0.96592680     0.08200
H611        H  0.45658621  0.21783553  0.92442213     0.05700
H612        H  0.99368168  0.13041574  0.88812552     0.05500
C613        C  0.41079090  0.16280488  0.97467224     0.02600
C614        C  0.42722591  0.19162468  0.97763221    -0.13600
C615        C  0.45161254  0.19456477  0.00028847     0.00100
C616        C  0.45387281  0.17064260  0.52390019    -0.12100
C617        C  0.43132624  0.14615465  0.52550401     0.02600
C618        C  0.41385368  0.13988471  0.99851423    -0.11500
H619        H  0.42273463  0.21046626  0.96097819     0.08200
H620        H  0.47256365  0.17063997  0.54101668     0.05700
H621        H  0.39988071  0.11824730  0.99761998     0.05500
C622        C  0.27184826  0.22822578  0.74772709     0.01700
C623        C  0.24704524  0.22712170  0.77063518     0.01700
C624        C  0.22249326  0.25021425  0.77005076     0.01700
C625        C  0.22199680  0.27440603  0.74620586     0.01700
C626        C  0.24886048  0.27752193  0.72524452     0.01700
C627        C  0.27316834  0.25354448  0.72513896     0.01700
C628        C  0.27010001  0.16713590  0.83418879     0.02600
C629        C  0.24786420  0.14328576  0.82646336    -0.13600
C630        C  0.22050561  0.15029126  0.81001735     0.00100
C631        C  0.22194339  0.17606587  0.78938896    -0.12100
C632        C  0.24518038  0.19992375  0.79367822     0.02600
C633        C  0.26650135  0.19696728  0.81950481    -0.11500
H634        H  0.24946530  0.11953263  0.83594898     0.08200
H635        H  0.20529197  0.17717172  0.77021049     0.05700
H636        H  0.28181823  0.21640168  0.82604713     0.05500
C637        C  0.15023808  0.32303337  0.71586579     0.02600
C638        C  0.14468750  0.34195261  0.74220202    -0.13600
C639        C  0.16109462  0.33757574  0.76982789     0.00100
C640        C  0.18787034  0.31798276  0.77001455    -0.12100
C641        C  0.19405618  0.29720544  0.74457964     0.02600
C642        C  0.17290719  0.29823290  0.71830762    -0.11500
H643        H  0.12877545  0.36181823  0.74087312     0.08200
H644        H  0.20346297  0.31904481  0.78998432     0.05700
H645        H  0.17505584  0.28115860  0.69940654     0.05500
C646        C  0.35385417  0.27823190  0.69172254     0.02600
C647        C  0.36105782  0.25011488  0.67594697    -0.13600
C648        C  0.33733027  0.22832264  0.66612289     0.00100
C649        C  0.30626605  0.23333873  0.67800861    -0.12100
C650        C  0.30145004  0.25563413  0.70307141     0.02600
C651        C  0.32612237  0.27745735  0.70980982    -0.11500
H652        H  0.38555303  0.24715506  0.66946910     0.08200
H653        H  0.28720751  0.21786288  0.67070043     0.05700
H654        H  0.32556459  0.29186336  0.73074172     0.05500
C655        C  0.22929412  0.34498726  0.66909357     0.02600
C656        C  0.25417139  0.36594491  0.67405086    -0.13600
C657        C  0.28104626  0.35503692  0.68947407     0.00100
C658        C  0.27712148  0.32922989  0.71021323    -0.12100
C659        C  0.25252057  0.30691782  0.70512329     0.02600
C660        C  0.23084682  0.31393727  0.68105578    -0.11500
H661        H  0.25486427  0.38840360  0.66140600     0.08200
H662        H  0.29265064  0.32745750  0.73011858     0.05700
H663        H  0.21440932  0.29627582  0.67281465     0.05500
C664        C  0.17610914  0.27109526  0.84437206     0.02600
C665        C  0.20139160  0.26901337  0.82277561    -0.13600
C666        C  0.19808964  0.24938817  0.79573043     0.00100
C667        C  0.17263124  0.22746446  0.79456581    -0.12100
C668        C  0.15160695  0.22548972  0.82001618     0.02600
C669        C  0.15049792  0.25061931  0.84070941    -0.11500
H670        H  0.22151081  0.28488034  0.82495566     0.08200
H671        H  0.16959571  0.21160927  0.77485327     0.05700
H672        H  0.12971986  0.25270956  0.85563403     0.05500
C673        C  0.34247382  0.17868682  0.77458935     0.02600
C674        C  0.34846612  0.16200067  0.74728420    -0.13600
C675        C  0.32777084  0.16210093  0.72170360     0.00100
C676        C  0.30021016  0.18070385  0.72373088    -0.12100
C677        C  0.29743418  0.20345588  0.74838661     0.02600
C678        C  0.31948085  0.20261437  0.77363244    -0.15100
H679        H  0.36973137  0.14775820  0.74671978     0.08200
H680        H  0.28277603  0.17956991  0.70517548     0.05700
H681        H  0.31862696  0.21990157  0.79235420     0.05500
C682        C  0.02915961  0.49865361  0.77151885     0.01700
C683        C  0.02808238  0.47362162  0.74858168     0.01700
C684        C  0.00570385  0.47572239  0.72327856     0.01700
C685        C  0.48203011  0.50017394  0.72345992     0.01700
C686        C  0.48195490  0.02343352  0.74814363     0.01700
C687        C  0.00570655  0.02284891  0.77181570     0.01700
C688        C  0.02948879  0.09944556  0.81183449     0.02600
C689        C  0.00199140  0.10503734  0.82905482    -0.13600
C690        C  0.48010886  0.08034361  0.83623847     0.00100
C691        C  0.48496661  0.05090466  0.82120056    -0.12100
C692        C  0.00694209  0.04914349  0.79552580     0.02600
C693        C  0.02901327  0.07400027  0.79100683    -0.11500
H694        H  0.99954319  0.12855748  0.83896086     0.08200
H695        H  0.46983871  0.03099304  0.82700055     0.05700
H696        H  0.04559176  0.07390595  0.77153463     0.05500
C697        C  0.10115858  0.02499516  0.81908586     0.02600
C698        C  0.07934137  0.02275734  0.79432343    -0.13600
C699        C  0.05477270  0.49994605  0.79568030     0.00100
C700        C  0.05337151  0.48007431  0.82231473    -0.12100
C701        C  0.08004033  0.47725094  0.84140408     0.02600
C702        C  0.10450805  0.49893752  0.83841972    -0.11500
H703        H  0.08098316  0.03930389  0.77497284     0.08200
H704        H  0.03278175  0.46574001  0.82735720     0.05700
H705        H  0.12499279  0.49746621  0.85368181     0.05500
C706        C  0.06060541  0.39422980  0.77927971     0.02600
C707        C  0.04402400  0.42311025  0.77806547    -0.13600
C708        C  0.04791770  0.44375878  0.75206995     0.00100
C709        C  0.06853765  0.43346225  0.72788599    -0.12100
C710        C  0.07624873  0.40095427  0.72495070     0.02600
C711        C  0.07080217  0.38087506  0.75078026    -0.11500
H712        H  0.02759191  0.42824515  0.79680352     0.08200
H713        H  0.07704096  0.45009228  0.71044049     0.05700
H714        H  0.07872452  0.35638592  0.75030794     0.05500
C715        C  0.42487746  0.08791115  0.72242137     0.02600
C716        C  0.45367653  0.07163072  0.72572332    -0.13600
C717        C  0.45618646  0.04798329  0.74955039     0.00100
C718        C  0.43309401  0.04717884  0.77412986    -0.12100
C719        C  0.40876426  0.06973971  0.77459446     0.02600
C720        C  0.40292479  0.08621857  0.74721409    -0.11500
H721        H  0.47245099  0.07508057  0.70863964     0.08200
H722        H  0.43382822  0.02946575  0.79249201     0.05700
H723        H  0.38076492  0.09900309  0.74615469     0.05500
C724        C  0.42379150  0.02434902  0.65835925     0.02600
C725        C  0.40344417  0.49775871  0.65992372    -0.13600
C726        C  0.40884467  0.47202893  0.67973129     0.00100
C727        C  0.43179046  0.47527469  0.70309370    -0.12100
C728        C  0.45512492  0.49939669  0.70019921     0.02600
C729        C  0.45192011  0.02329172  0.67612094    -0.11500
H730        H  0.38533857  0.49600977  0.64233449     0.08200
H731        H  0.43233445  0.45843593  0.72230747     0.05700
H732        H  0.46984760  0.04117666  0.67226013     0.05500
C733        C  0.48076091  0.40934104  0.66752741     0.02600
C734        C  0.00622059  0.40885250  0.64716540    -0.13600
C735        C  0.03229078  0.42893457  0.65000318     0.00100
C736        C  0.03056297  0.45321898  0.67283046    -0.12100
C737        C  0.00643275  0.45196118  0.69669498     0.02600
C738        C  0.48309619  0.42771915  0.69481543    -0.11500
H739        H  0.00718786  0.38991568  0.63098277     0.08200
H740        H  0.04895452  0.47116605  0.67369032     0.05700
H741        H  0.46640739  0.42375967  0.71373511     0.05500
O742        O  0.12344401  0.07712400  0.82269385    -0.80700
O743        O  0.12677160  0.17398164  0.82251021    -0.80700
O744        O  0.05856079  0.09811989  0.85831564    -0.80700
O745        O  0.19186616  0.15202908  0.85742096    -0.80700
O746        O  0.07972275  0.12596858  0.81905350    -0.80800
O747        O  0.17012231  0.12453193  0.81862649    -0.80700
O748        O  0.14953777  0.19358642  0.86452120    -0.80700
O749        O  0.10095375  0.05616984  0.86443151    -0.80700
C750        C  0.10799883  0.05487142  0.83524547     1.09000
C751        C  0.14284803  0.19554912  0.83540104     1.08900
C752        C  0.05842593  0.10726045  0.82950442     1.09000
C753        C  0.19158656  0.14313860  0.82849524     1.08900
O754        O  0.19547326  0.10014430  0.87665187    -0.80700
O755        O  0.05457541  0.15019183  0.87737418    -0.80800
O756        O  0.12403123  0.08177790  0.92372660    -0.80700
O757        O  0.12611806  0.16884148  0.92358585    -0.80700
O758        O  0.09817376  0.19112073  0.88507127    -0.80700
O759        O  0.15194038  0.05909604  0.88532841    -0.80700
O760        O  0.17650027  0.12223099  0.91943210    -0.80700
O761        O  0.07386299  0.12751330  0.91963574    -0.80700
Co762      Co  0.15687843  0.09300280  0.85101926     1.51500
Co763      Co  0.09323399  0.15744486  0.85116138     1.51700
Co764      Co  0.09237772  0.09399223  0.89146243     1.51600
Co765      Co  0.15798566  0.15598940  0.89124531     1.51500
O766        O  0.12508124  0.12517532  0.87123597    -1.42600
C767        C  0.19785768  0.10582633  0.90583533     1.08900
C768        C  0.05213102  0.14346729  0.90639859     1.09000
C769        C  0.14293318  0.06019755  0.91438539     1.08900
C770        C  0.10720492  0.19034932  0.91398073     1.08900
O771        O  0.37903456  0.05583996  0.65034327    -0.80700
O772        O  0.39230162  0.19046162  0.59767845    -0.80700
O773        O  0.42480473  0.12076589  0.57641482    -0.80700
O774        O  0.42713654  0.11665098  0.67163970    -0.80700
O775        O  0.38558143  0.14929608  0.55665005    -0.80800
O776        O  0.38204590  0.09785863  0.69089784    -0.80700
O777        O  0.43286467  0.16720137  0.62160782    -0.80700
O778        O  0.42202967  0.07223926  0.62517373    -0.80700
C779        C  0.40857915  0.05286585  0.64415464     1.09000
C780        C  0.42153233  0.18994724  0.60492929     1.08900
C781        C  0.41409499  0.13906073  0.55509261     1.09000
C782        C  0.41188437  0.10122751  0.69287644     1.08900
O783        O  0.32620386  0.13152941  0.67229183    -0.80700
O784        O  0.32347830  0.12959006  0.57956294    -0.80800
O785        O  0.35986074  0.05625069  0.59909280    -0.80700
O786        O  0.37818290  0.19439281  0.65060356    -0.80700
O787        O  0.33237432  0.18090015  0.62991724    -0.80700
O788        O  0.32035494  0.08048674  0.62356693    -0.80700
O789        O  0.37124906  0.15162807  0.69058350    -0.80700
O790        O  0.36118582  0.09951157  0.55801903    -0.80700
Co791      Co  0.35205965  0.09479133  0.65588347     1.51500
Co792      Co  0.35784493  0.15920363  0.59418077     1.51700
Co793      Co  0.39236749  0.09040586  0.59267255     1.51600
Co794      Co  0.40185515  0.15375846  0.65518950     1.51500
O795        O  0.37598843  0.12462618  0.62444282    -1.42600
C796        C  0.34129046  0.14809146  0.69265034     1.08900
C797        C  0.33293870  0.11063744  0.55773949     1.09000
C798        C  0.33070955  0.05718405  0.60711248     1.08900
C799        C  0.34877337  0.19965763  0.64759727     1.08900
O800        O  0.19745561  0.34917945  0.62338997    -0.80700
O801        O  0.05437276  0.32404100  0.63013223    -0.80700
O802        O  0.15153958  0.36508615  0.67986274    -0.80700
O803        O  0.10589830  0.35958120  0.55190137    -0.80700
O804        O  0.11588670  0.32573856  0.67006735    -0.80800
O805        O  0.12010525  0.31962017  0.58138939    -0.80700
O806        O  0.05925857  0.36189742  0.59283305    -0.80700
O807        O  0.18220278  0.37508009  0.66743090    -0.80700
C808        C  0.20156634  0.35633067  0.65264016     1.09000
C809        C  0.04405683  0.33839649  0.60525863     1.08900
C810        C  0.13903331  0.33738066  0.68591988     1.09000
C811        C  0.10833030  0.32977759  0.55605824     1.08900
O812        O  0.16113091  0.37442831  0.55957998    -0.80700
O813        O  0.07884400  0.37027329  0.67680397    -0.80800
O814        O  0.17873728  0.42063641  0.61840913    -0.80700
O815        O  0.07925576  0.42471583  0.61547892    -0.80700
O816        O  0.06496597  0.38498393  0.64685365    -0.80700
O817        O  0.19466783  0.37435809  0.59876392    -0.80700
O818        O  0.13241712  0.41832068  0.57073586    -0.80700
O819        O  0.11875935  0.40282740  0.68901927    -0.80700
Co820      Co  0.15669080  0.34493934  0.59750983     1.51500
Co821      Co  0.09308956  0.34831344  0.63466112     1.51700
Co822      Co  0.14701945  0.40451017  0.65109137     1.51600
Co823      Co  0.09683243  0.39171653  0.58567800     1.51500
O824        O  0.12676993  0.37445107  0.62022809    -1.42600
C825        C  0.15258479  0.40341408  0.55365193     1.08900
C826        C  0.09277236  0.38960598  0.69626783     1.09000
C827        C  0.19853376  0.40448963  0.60249833     1.08900
C828        C  0.06165248  0.41378148  0.63749754     1.08900
O829        O  0.17931284  0.82060414  0.37399129    -0.80700
O830        O  0.15201325  0.94306311  0.37391286    -0.80700
O831        O  0.12431052  0.83465043  0.31016025    -0.80700
O832        O  0.13619097  0.90392757  0.43704042    -0.80700
O833        O  0.15671340  0.87611911  0.30906492    -0.80800
O834        O  0.17748717  0.87062839  0.42628369    -0.80700
O835        O  0.12904879  0.93158783  0.42071696    -0.80700
O836        O  0.13630422  0.80987848  0.34590228    -0.80700
C837        C  0.16477971  0.80371828  0.35390562     1.09000
C838        C  0.14710899  0.94926636  0.40297069     1.08900
C839        C  0.14696426  0.85015792  0.29781109     1.09000
C840        C  0.16472230  0.89225246  0.44291848     1.08900
O841        O  0.13246396  0.83530858  0.44126471    -0.80700
O842        O  0.10425258  0.90464256  0.31514775    -0.80800
O843        O  0.07853741  0.81409232  0.37732690    -0.80700
O844        O  0.08869626  0.93950784  0.38208392    -0.80700
O845        O  0.10751903  0.92957277  0.33348806    -0.80700
O846        O  0.12319043  0.80626903  0.40391799    -0.80700
O847        O  0.08857096  0.86420449  0.43807775    -0.80700
O848        O  0.07296999  0.86118648  0.32270204    -0.80700
Co849      Co  0.14926705  0.84621151  0.39937376     1.51500
Co850      Co  0.14611507  0.90513597  0.34471857     1.51700
Co851      Co  0.10409635  0.84356618  0.35111198     1.51600
Co852      Co  0.09609181  0.89940363  0.40699053     1.51500
O853        O  0.12386855  0.87657533  0.37556596    -1.42600
C854        C  0.10500363  0.84274644  0.45115293     1.08900
C855        C  0.07973943  0.88631563  0.30765379     1.09000
C856        C  0.09479877  0.79814332  0.39696648     1.08900
C857        C  0.09121271  0.94643010  0.35307246     1.08900
O858        O  0.37065434  0.67471746  0.32431941    -0.80700
O859        O  0.37659086  0.66813118  0.42804342    -0.80700
O860        O  0.30490765  0.62713673  0.34614444    -0.80700
O861        O  0.43539993  0.63136886  0.40153807    -0.80700
O862        O  0.31688348  0.67263270  0.36999969    -0.80800
O863        O  0.42083194  0.67461032  0.37446187    -0.80700
O864        O  0.40654961  0.62453560  0.43610727    -0.80700
O865        O  0.34773171  0.63213454  0.30298201    -0.80700
C866        C  0.35309790  0.66216892  0.30324786     1.09000
C867        C  0.39661466  0.65198578  0.44490337     1.08900
C868        C  0.29916719  0.65632417  0.35119500     1.09000
C869        C  0.43989624  0.66039399  0.39348692     1.08900
O870        O  0.44363402  0.61965466  0.34556292    -0.80700
O871        O  0.31327470  0.61424603  0.40134327    -0.80800
O872        O  0.37912745  0.57371621  0.32343526    -0.80700
O873        O  0.37054770  0.58033351  0.42987570    -0.80700
O874        O  0.34029381  0.62405530  0.43679951    -0.80700
O875        O  0.40154663  0.61688707  0.30266840    -0.80700
O876        O  0.43177657  0.57458895  0.37081241    -0.80700
O877        O  0.32878113  0.57179765  0.37353178    -0.80700
Co878      Co  0.40623038  0.64666190  0.33870337     1.51500
Co879      Co  0.34788382  0.64591409  0.39576803     1.51700
Co880      Co  0.34297028  0.60102317  0.33829765     1.51600
Co881      Co  0.39970143  0.60114669  0.39615889     1.51500
O882        O  0.37427520  0.62366752  0.36589893    -1.42600
C883        C  0.44990123  0.59085571  0.35195129     1.08900
C884        C  0.30966902  0.58510495  0.39331490     1.09000
C885        C  0.39706717  0.58676786  0.30280206     1.08900
C886        C  0.35035935  0.59694655  0.44652130     1.08900
O887        O  0.33460799  0.87253490  0.18033845    -0.80700
O888        O  0.43152765  0.87868644  0.17104872    -0.80700
O889        O  0.35120205  0.80687722  0.14477583    -0.80700
O890        O  0.40601302  0.94006899  0.13551382    -0.80700
O891        O  0.38206740  0.82874693  0.18137810    -0.80800
O892        O  0.38279082  0.92080897  0.17870727    -0.80700
O893        O  0.44708906  0.89878568  0.12563737    -0.80700
O894        O  0.30915928  0.84956505  0.14155010    -0.80700
C895        C  0.31044652  0.85807218  0.17046420     1.09000
C896        C  0.45141508  0.89491310  0.15502497     1.08900
C897        C  0.36211937  0.80721976  0.17288251     1.09000
C898        C  0.40010250  0.94168237  0.16507504     1.08900
O899        O  0.35229524  0.94429666  0.12448905    -0.80700
O900        O  0.40233881  0.80372932  0.12376378    -0.80800
O901        O  0.33014952  0.87199486  0.07922553    -0.80700
O902        O  0.41717220  0.87316842  0.07064872    -0.80700
O903        O  0.44187114  0.84662315  0.10907223    -0.80700
O904        O  0.31175206  0.90037992  0.11967406    -0.80700
O905        O  0.36920165  0.92670518  0.07889794    -0.80700
O906        O  0.37778547  0.81942887  0.08126936    -0.80700
Co907      Co  0.34814007  0.90586220  0.15044566     1.51500
Co908      Co  0.41162764  0.84307754  0.14642162     1.51700
Co909      Co  0.34518762  0.84008931  0.11113408     1.51600
Co910      Co  0.40641881  0.90625397  0.10289590     1.51500
O911        O  0.37787447  0.87373044  0.12752830    -1.42600
C912        C  0.35384516  0.94763362  0.09504805     1.08900
C913        C  0.39629647  0.79964707  0.09502188     1.09000
C914        C  0.31053428  0.89230554  0.09043405     1.08900
C915        C  0.43966521  0.85486814  0.07984954     1.08900
C916        C  0.27457788  0.00131905  0.02355603     0.01700
C917        C  0.25294555  0.97501077  0.02213024     0.01700
C918        C  0.22818368  0.97541364  0.99856455     0.01700
C919        C  0.22539661  0.00152698  0.47646838     0.01700
C920        C  0.24912133  0.52577791  0.47655998     0.01700
C921        C  0.27239062  0.52673976  0.00119529     0.01700
C922        C  0.31195467  0.52765601  0.10020956     0.02600
C923        C  0.29177990  0.52582737  0.07437545    -0.13600
C924        C  0.29761494  0.00327102  0.05031301     0.00100
C925        C  0.32312728  0.98128548  0.05365983    -0.12100
C926        C  0.33646230  0.97679212  0.08372964     0.02600
C927        C  0.32916279  0.99994202  0.10705042    -0.11500
H928        H  0.27111393  0.54085251  0.07417901     0.08200
H929        H  0.33012769  0.96612761  0.03430602     0.05700
H930        H  0.33843514  0.99837990  0.13061037     0.05500
C931        C  0.31497232  0.60370146  0.02817594     0.02600
C932        C  0.33233105  0.60997130  0.50062446    -0.13600
C933        C  0.33589342  0.58679192  0.47691140     0.00100
C934        C  0.31994012  0.55776875  0.48047405    -0.12100
C935        C  0.29532835  0.55465300  0.50312757     0.02600
C936        C  0.29268109  0.57877784  0.02669285    -0.11500
H937        H  0.34609392  0.63172098  0.49929728     0.08200
H938        H  0.32497611  0.53877849  0.46415697     0.05700
H939        H  0.27363153  0.57878506  0.04366327     0.05500
C940        C  0.14973268  0.53198618  0.43377134     0.02600
C941        C  0.13953658  0.00383838  0.41965960    -0.13600
C942        C  0.16005132  0.97824093  0.41720448     0.00100
C943        C  0.19035910  0.98005783  0.43117935    -0.12100
C944        C  0.19686961  0.00383873  0.45400694     0.02600
C945        C  0.17521734  0.52970275  0.45523038    -0.11500
H946        H  0.11727109  0.00360588  0.40693089     0.08200
H947        H  0.20793563  0.96262868  0.42493841     0.05700
H948        H  0.17681704  0.54716121  0.47365865     0.05500
C949        C  0.22737816  0.59323453  0.42035211     0.02600
C950        C  0.22847017  0.57481109  0.44775913    -0.13600
C951        C  0.25085030  0.54965977  0.45007071     0.00100
C952        C  0.27537402  0.54749324  0.42682325    -0.12100
C953        C  0.27896736  0.57191616  0.40443139     0.02600
C954        C  0.25384866  0.59319383  0.40082117    -0.11500
H955        H  0.21190185  0.57985846  0.46644944     0.08200
H956        H  0.29252375  0.52840776  0.42750616     0.05700
H957        H  0.25578707  0.61220062  0.38400423     0.05500
C958        C  0.22825414  0.91779667  0.08907934     0.02600
C959        C  0.25412703  0.89739196  0.09029679    -0.13600
C960        C  0.28164472  0.90322353  0.07339662     0.00100
C961        C  0.28041256  0.92605875  0.04868538    -0.12100
C962        C  0.25463017  0.94836399  0.04708494     0.02600
C963        C  0.23058965  0.94564670  0.07069037    -0.11500
H964        H  0.25371758  0.87736816  0.10648873     0.08200
H965        H  0.29944981  0.92667073  0.03162101     0.05700
H966        H  0.21311843  0.96409783  0.07376730     0.05500
C967        C  0.16429700  0.91739220  0.02472145     0.02600
C968        C  0.16163282  0.89807918  0.49861043    -0.13600
C969        C  0.17966261  0.90349105  0.47188610     0.00100
C970        C  0.20458110  0.92570416  0.47329137    -0.12100
C971        C  0.20449232  0.94872365  0.99782628     0.02600
C972        C  0.18155146  0.94569955  0.02212067    -0.11500
H973        H  0.14374524  0.87970264  0.49860355     0.08200
H974        H  0.22244301  0.92608642  0.45491001     0.05700
H975        H  0.17832140  0.96409717  0.03951207     0.05500
C976        C  0.02365781  0.74535118  0.47551152     0.01700
C977        C  0.49865886  0.72232986  0.47448134     0.01700
C978        C  0.47500677  0.72161826  0.49868144     0.01700
C979        C  0.47411948  0.74656528  0.02136834     0.01700
C980        C  0.49759409  0.77088890  0.02143251     0.01700
C981        C  0.02369991  0.76937075  0.49969006     0.01700
C982        C  0.09208273  0.82470506  0.47769951     0.02600
C983        C  0.06084222  0.81268303  0.47877708    -0.13600
C984        C  0.05205003  0.79130422  0.50311065     0.00100
C985        C  0.07195287  0.79015416  0.03005891    -0.12100
C986        C  0.09999353  0.80836796  0.03096178     0.02600
C987        C  0.11237513  0.81898799  0.00263594    -0.11500
H988        H  0.04454108  0.81817352  0.45996563     0.08200
H989        H  0.06672512  0.77476512  0.04967772     0.05700
H990        H  0.13618661  0.82866034  0.00226007     0.05500
C991        C  0.08354252  0.76893732  0.41234346     0.02600
C992        C  0.05378759  0.76570186  0.42728402    -0.13600
C993        C  0.05062148  0.74323341  0.45207687     0.00100
C994        C  0.07428971  0.71934727  0.45498742    -0.12100
C995        C  0.09962639  0.71812846  0.43347728     0.02600
C996        C  0.10676373  0.74583283  0.41758119    -0.11500
H997        H  0.03520339  0.78291336  0.42290136     0.08200
H998        H  0.07391545  0.70254474  0.47422369     0.05700
H999        H  0.12988293  0.74751124  0.40651141     0.05500
C1000       C  0.46837322  0.84787626  0.06031819     0.02600
C1001       C  0.49593676  0.85464114  0.07673923    -0.13600
C1002       C  0.01534393  0.82976649  0.08747664     0.00100
C1003       C  0.01291654  0.80035178  0.07185344    -0.12100
C1004       C  0.49413109  0.79818829  0.04423894     0.02600
C1005       C  0.47023471  0.82170543  0.03980189    -0.11500
H1006       H  0.49926009  0.87850625  0.08384544     0.08200
H1007       H  0.02729543  0.78054341  0.07942032     0.05700
H1008       H  0.45341893  0.81984552  0.02073990     0.05500
C1009       C  0.41190274  0.77048841  0.08181084     0.02600
C1010       C  0.42637182  0.76741187  0.05209212    -0.13600
C1011       C  0.45151811  0.74502163  0.04830073     0.00100
C1012       C  0.45806167  0.72306434  0.07261977    -0.12100
C1013       C  0.43749431  0.72032844  0.09804186     0.02600
C1014       C  0.41809715  0.74655698  0.10409141    -0.11500
H1015       H  0.42009457  0.78361097  0.03340139     0.08200
H1016       H  0.47882278  0.70808811  0.07184279     0.05700
H1017       H  0.40354160  0.74582362  0.12482229     0.05500
C1018       C  0.02226178  0.65339972  0.42167230     0.02600
C1019       C  0.02095855  0.67368931  0.44752092    -0.13600
C1020       C  0.99792085  0.69816944  0.44861682     0.00100
C1021       C  0.47389389  0.69892439  0.42522543    -0.12100
C1022       C  0.47050861  0.67287705  0.40489890     0.02600
C1023       C  0.99545587  0.65101826  0.40310796    -0.11500
H1024       H  0.03788555  0.67048334  0.46608455     0.08200
H1025       H  0.45669463  0.71796435  0.42466642     0.05700
H1026       H  0.99370369  0.63049916  0.38810104     0.05500
C1027       C  0.41075107  0.66273574  0.47478562     0.02600
C1028       C  0.42724148  0.69150100  0.47776986    -0.13600
C1029       C  0.45160673  0.69435397  0.50043498     0.00100
C1030       C  0.45384341  0.67042452  0.02404410    -0.12100
C1031       C  0.43129599  0.64594159  0.02560409     0.02600
C1032       C  0.41378664  0.63976857  0.49859461    -0.11500
H1033       H  0.42279275  0.71037237  0.46113719     0.08200
H1034       H  0.47247996  0.67046021  0.04122159     0.05700
H1035       H  0.39977205  0.61816090  0.49766389     0.05500
C1036       C  0.27209453  0.72831470  0.24745868     0.01700
C1037       C  0.24714813  0.72701301  0.27010673     0.01700
C1038       C  0.22250263  0.74994772  0.26914224     0.01700
C1039       C  0.22219958  0.77440847  0.24561210     0.01700
C1040       C  0.24919071  0.77767018  0.22496660     0.01700
C1041       C  0.27346252  0.75368837  0.22493964     0.01700
C1042       C  0.27015471  0.66729540  0.33409996     0.02600
C1043       C  0.24793424  0.64341913  0.32643350    -0.13600
C1044       C  0.22060373  0.65034824  0.30994326     0.00100
C1045       C  0.22213268  0.67595550  0.28911194    -0.12100
C1046       C  0.24531683  0.69988768  0.29332354     0.02600
C1047       C  0.26657418  0.69706819  0.31924972    -0.11500
H1048       H  0.24955242  0.61967188  0.33590492     0.08200
H1049       H  0.20566743  0.67681851  0.26976070     0.05700
H1050       H  0.28184222  0.71654559  0.32576751     0.05500
C1051       C  0.15022115  0.82279328  0.21537886     0.02600
C1052       C  0.14460438  0.84167734  0.24164982    -0.13600
C1053       C  0.16123236  0.83759674  0.26908464     0.00100
C1054       C  0.18836125  0.81852584  0.26907681    -0.12100
C1055       C  0.19428105  0.79727712  0.24395043     0.02600
C1056       C  0.17295714  0.79804730  0.21781102    -0.11500
H1057       H  0.12868715  0.86152471  0.24031616     0.08200
H1058       H  0.20442320  0.82049685  0.28856572     0.05700
H1059       H  0.17511826  0.78093306  0.19893937     0.05500
C1060       C  0.35410993  0.77828155  0.19175496     0.02600
C1061       C  0.36127722  0.75014754  0.17596367    -0.13600
C1062       C  0.33751442  0.72840032  0.16607905     0.00100
C1063       C  0.30646686  0.73348175  0.17791367    -0.12100
C1064       C  0.30170245  0.75577664  0.20295697     0.02600
C1065       C  0.32638061  0.77752413  0.20980130    -0.11500
H1066       H  0.38582901  0.74705717  0.16966458     0.08200
H1067       H  0.28738988  0.71800709  0.17064217     0.05700
H1068       H  0.32581236  0.79188740  0.23076326     0.05500
C1069       C  0.22953092  0.84543509  0.16935217     0.02600
C1070       C  0.25443690  0.86636092  0.17433611    -0.13600
C1071       C  0.28134395  0.85536834  0.18967657     0.00100
C1072       C  0.27744744  0.82945421  0.21027563    -0.12100
C1073       C  0.25288967  0.80714886  0.20503219     0.02600
C1074       C  0.23114179  0.81432045  0.18109628    -0.11500
H1075       H  0.25512662  0.88884613  0.16173699     0.08200
H1076       H  0.29299183  0.82757709  0.23015940     0.05700
H1077       H  0.21468058  0.79670391  0.17280855     0.05500
C1078       C  0.17594740  0.77346970  0.34149430     0.02600
C1079       C  0.20152414  0.77029986  0.32070956    -0.13600
C1080       C  0.19835390  0.74940790  0.29475836     0.00100
C1081       C  0.17318996  0.72707627  0.29452860    -0.12100
C1082       C  0.15305330  0.72519271  0.32065098     0.02600
C1083       C  0.15217082  0.75059097  0.34098462    -0.11500
H1084       H  0.22150060  0.78641296  0.32223902     0.08200
H1085       H  0.16988585  0.71082097  0.27520046     0.05700
H1086       H  0.13191142  0.75239794  0.35660559     0.05500
C1087       C  0.34276744  0.67912443  0.27458553     0.02600
C1088       C  0.34887664  0.66246763  0.24728587    -0.13600
C1089       C  0.32809937  0.66231524  0.22174839     0.00100
C1090       C  0.30049269  0.68081541  0.22372006    -0.12100
C1091       C  0.29770080  0.70365215  0.24826604     0.02600
C1092       C  0.31968852  0.70295007  0.27355746    -0.15100
H1093       H  0.37024949  0.64839759  0.24674765     0.08200
H1094       H  0.28306355  0.67959102  0.20516063     0.05700
H1095       H  0.31874348  0.72027871  0.29223924     0.05500
C1096       C  0.02905745  0.99843296  0.27192410     0.01700
C1097       C  0.02801742  0.97353434  0.24886034     0.01700
C1098       C  0.00569609  0.97570182  0.22350673     0.01700
C1099       C  0.48212069  0.00027340  0.22357828     0.01700
C1100       C  0.48183761  0.52338091  0.24799535     0.01700
C1101       C  0.00571286  0.52296828  0.27155043     0.01700
C1102       C  0.02958943  0.59953910  0.31171273     0.02600
C1103       C  0.00209786  0.60515334  0.32894639    -0.13600
C1104       C  0.48011707  0.58055547  0.33605197     0.00100
C1105       C  0.48491768  0.55111881  0.32096582    -0.12100
C1106       C  0.00693967  0.54929376  0.29528944     0.02600
C1107       C  0.02908942  0.57410417  0.29085581    -0.11500
H1108       H  0.99971437  0.62864394  0.33893655     0.08200
H1109       H  0.46978224  0.53121952  0.32678174     0.05700
H1110       H  0.04574471  0.57395248  0.27145052     0.05500
C1111       C  0.10110446  0.52502115  0.31895519     0.02600
C1112       C  0.07943312  0.52284589  0.29405225    -0.13600
C1113       C  0.05481124  0.99970985  0.29603728     0.00100
C1114       C  0.05396527  0.97951812  0.32250443    -0.12100
C1115       C  0.08098952  0.97669467  0.34117897     0.02600
C1116       C  0.10502783  0.99883597  0.33837224    -0.11500
H1117       H  0.08125198  0.53934773  0.27466899     0.08200
H1118       H  0.03354404  0.96504122  0.32777218     0.05700
H1119       H  0.12561514  0.99750829  0.35353292     0.05500
C1120       C  0.06097033  0.89446576  0.27950968     0.02600
C1121       C  0.04413568  0.92314523  0.27826906    -0.13600
C1122       C  0.04790716  0.94375914  0.25226023     0.00100
C1123       C  0.06852683  0.93354212  0.22805491    -0.12100
C1124       C  0.07629090  0.90106094  0.22512327     0.02600
C1125       C  0.07107753  0.88104307  0.25102662    -0.11500
H1126       H  0.02752309  0.92809040  0.29690187     0.08200
H1127       H  0.07702228  0.95019470  0.21063490     0.05700
H1128       H  0.07898261  0.85655303  0.25059425     0.05500
C1129       C  0.42502440  0.58804137  0.22222274     0.02600
C1130       C  0.45368125  0.57152086  0.22543765    -0.13600
C1131       C  0.45610765  0.54796297  0.24934469     0.00100
C1132       C  0.43306883  0.54739183  0.27399049    -0.12100
C1133       C  0.40897177  0.57021321  0.27450090     0.02600
C1134       C  0.40322328  0.58674063  0.24713941    -0.11500
H1135       H  0.47239293  0.57473260  0.20823995     0.08200
H1136       H  0.43370749  0.52970769  0.29238346     0.05700
H1137       H  0.38116993  0.59969982  0.24608797     0.05500
C1138       C  0.42311913  0.52404785  0.15871964     0.02600
C1139       C  0.40431057  0.99789868  0.15908015    -0.13600
C1140       C  0.40937791  0.97224960  0.17909993     0.00100
C1141       C  0.43198056  0.97553259  0.20278842    -0.12100
C1142       C  0.45533827  0.99966008  0.20017229     0.02600
C1143       C  0.45149490  0.52291153  0.17609333    -0.11500
H1144       H  0.38653454  0.99611967  0.14113962     0.08200
H1145       H  0.43234869  0.95865410  0.22197345     0.05700
H1146       H  0.46944595  0.54071581  0.17196080     0.05500
C1147       C  0.48079759  0.90949513  0.16748398     0.02600
C1148       C  0.00625035  0.90973393  0.14661069    -0.13600
C1149       C  0.03239539  0.92961227  0.14991234     0.00100
C1150       C  0.03067347  0.95358456  0.17301981    -0.12100
C1151       C  0.00652112  0.95207031  0.19681750     0.02600
C1152       C  0.48309648  0.92777955  0.19484549    -0.11500
H1153       H  0.00720870  0.89129928  0.13013099     0.08200
H1154       H  0.04905301  0.97153485  0.17407403     0.05700
H1155       H  0.46636589  0.92379027  0.21373764     0.05500
O1156       O  0.12349127  0.57716976  0.32255141    -0.80700
O1157       O  0.12698167  0.67420455  0.32276480    -0.80700
O1158       O  0.05869874  0.59809194  0.35816105    -0.80700
O1159       O  0.19191012  0.65207984  0.35737756    -0.80700
O1160       O  0.07981038  0.62613246  0.31897751    -0.80800
O1161       O  0.17016665  0.62465474  0.31850939    -0.80700
O1162       O  0.14946434  0.69353355  0.36504827    -0.80700
O1163       O  0.10112310  0.55617993  0.36432561    -0.80700
C1164       C  0.10808022  0.55489604  0.33511738     1.09000
C1165       C  0.14322677  0.69553897  0.33586208     1.08900
C1166       C  0.05854244  0.60734236  0.32937757     1.09000
C1167       C  0.19164495  0.64323233  0.32841759     1.08900
O1168       O  0.19565299  0.60014561  0.37640945    -0.80700
O1169       O  0.05459875  0.65007388  0.37736823    -0.80800
O1170       O  0.12414900  0.58189896  0.42361411    -0.80700
O1171       O  0.12620724  0.66826191  0.42384901    -0.80700
O1172       O  0.09815636  0.69070827  0.38547779    -0.80700
O1173       O  0.15209372  0.55923830  0.38521570    -0.80700
O1174       O  0.17671076  0.62193866  0.41933019    -0.80700
O1175       O  0.07388915  0.62737680  0.41960115    -0.80700
Co1176     Co  0.15697347  0.59306485  0.35086163     1.51500
Co1177     Co  0.09332231  0.65743473  0.35125665     1.51700
Co1178     Co  0.09247631  0.59396037  0.39136274     1.51600
Co1179     Co  0.15807668  0.65578980  0.39137724     1.51500
O1180       O  0.12517274  0.62512966  0.37119305    -1.42600
C1181       C  0.19807992  0.60566886  0.40561901     1.08900
C1182       C  0.05214963  0.64332876  0.40638986     1.09000
C1183       C  0.14316531  0.56042547  0.41430437     1.08900
C1184       C  0.10710036  0.68967058  0.41441626     1.08900
O1185       O  0.37851974  0.55564208  0.15030730    -0.80700
O1186       O  0.39224268  0.69039460  0.09771584    -0.80700
O1187       O  0.42467851  0.62044437  0.07647113    -0.80700
O1188       O  0.42712218  0.61647255  0.17136074    -0.80700
O1189       O  0.38556067  0.64916631  0.05672056    -0.80800
O1190       O  0.38207117  0.59767042  0.19076974    -0.80700
O1191       O  0.43280203  0.66702815  0.12151566    -0.80700
O1192       O  0.42164333  0.57182328  0.12525876    -0.80700
C1193       C  0.40805933  0.55252248  0.14423056     1.09000
C1194       C  0.42146293  0.68985418  0.10497540     1.08900
C1195       C  0.41404351  0.63883830  0.05518004     1.09000
C1196       C  0.41192463  0.60109456  0.19265260     1.08900
O1197       O  0.32625823  0.63164318  0.17240643    -0.80700
O1198       O  0.32337867  0.62957160  0.07951520    -0.80800
O1199       O  0.35937441  0.55618348  0.09905120    -0.80700
O1200       O  0.37823987  0.69429289  0.15069035    -0.80700
O1201       O  0.33239920  0.68093711  0.12993746    -0.80700
O1202       O  0.31999346  0.58052922  0.12364768    -0.80700
O1203       O  0.37144332  0.65146772  0.19062403    -0.80700
O1204       O  0.36104827  0.59943130  0.05799703    -0.80700
Co1205     Co  0.35185866  0.59475699  0.15590322     1.51500
Co1206     Co  0.35779248  0.65914774  0.09419092     1.51700
Co1207     Co  0.39210474  0.59018798  0.09270033     1.51600
Co1208     Co  0.40186664  0.65360940  0.15511983     1.51500
O1209       O  0.37585452  0.62451383  0.12443474    -1.42600
C1210       C  0.34148374  0.64810740  0.19274415     1.08900
C1211       C  0.33280922  0.61056688  0.05771188     1.09000
C1212       C  0.33022773  0.55720203  0.10711678     1.08900
C1213       C  0.34885811  0.69965960  0.14761847     1.08900
O1214       O  0.19758525  0.84950171  0.12373338    -0.80700
O1215       O  0.05430540  0.82436487  0.13024926    -0.80700
O1216       O  0.15154114  0.86509869  0.17976513    -0.80700
O1217       O  0.10583603  0.85940706  0.05290448    -0.80700
O1218       O  0.11583223  0.82583690  0.16978009    -0.80800
O1219       O  0.11999601  0.81966505  0.08271147    -0.80700
O1220       O  0.05895989  0.86238620  0.09309888    -0.80700
O1221       O  0.18232898  0.87541012  0.16777284    -0.80700
C1222       C  0.20177772  0.85676197  0.15294370     1.09000
C1223       C  0.04389741  0.83873949  0.10543314     1.08900
C1224       C  0.13906312  0.83732837  0.18557829     1.09000
C1225       C  0.10777575  0.82960137  0.05753907     1.08900
O1226       O  0.16096935  0.87463471  0.05989798    -0.80700
O1227       O  0.07878865  0.87054007  0.17692647    -0.80800
O1228       O  0.17885390  0.92092676  0.11878256    -0.80700
O1229       O  0.07940901  0.92515531  0.11569878    -0.80700
O1230       O  0.06488072  0.88547592  0.14700533    -0.80700
O1231       O  0.19469498  0.87468371  0.09902905    -0.80700
O1232       O  0.13239926  0.91850095  0.07136306    -0.80700
O1233       O  0.11879244  0.90295251  0.18928476    -0.80700
Co1234     Co  0.15670553  0.84527134  0.09803645     1.51500
Co1235     Co  0.09296205  0.84874180  0.13474473     1.51700
Co1236     Co  0.14706466  0.90480067  0.15143753     1.51600
Co1237     Co  0.09679981  0.89197534  0.08615166     1.51500
O1238       O  0.12676590  0.87481386  0.12063595    -1.42600
C1239       C  0.15249663  0.90370082  0.05418624     1.08900
C1240       C  0.09277651  0.88975507  0.19644464     1.09000
C1241       C  0.19862509  0.90479196  0.10282306     1.08900
C1242       C  0.06174005  0.91430719  0.13767203     1.08900
O1243       O  0.17928658  0.82061954  0.87399680    -0.80700
O1244       O  0.15198294  0.94307495  0.87393040    -0.80700
O1245       O  0.12429593  0.83466985  0.81015887    -0.80700
O1246       O  0.13614791  0.90393475  0.93704784    -0.80700
O1247       O  0.15670319  0.87613553  0.80907896    -0.80800
O1248       O  0.17745149  0.87064526  0.92628916    -0.80700
O1249       O  0.12900380  0.93159921  0.92072751    -0.80700
O1250       O  0.13628180  0.80989213  0.84590267    -0.80700
C1251       C  0.16475660  0.80373304  0.85390923     1.09000
C1252       C  0.14706908  0.94927827  0.90298664     1.08900
C1253       C  0.14695453  0.85017735  0.79781792     1.09000
C1254       C  0.16468083  0.89226390  0.94292642     1.08900
O1255       O  0.13243126  0.83532156  0.94126596    -0.80700
O1256       O  0.10424049  0.90465607  0.81514857    -0.80800
O1257       O  0.07851242  0.81410192  0.87731993    -0.80700
O1258       O  0.08866275  0.93951549  0.88208254    -0.80700
O1259       O  0.10750149  0.92958655  0.83349124    -0.80700
O1260       O  0.12316210  0.80628298  0.90391787    -0.80700
O1261       O  0.08853310  0.86420985  0.93807569    -0.80700
O1262       O  0.07295220  0.86120251  0.82269560    -0.80700
Co1263     Co  0.14923710  0.84622545  0.89937703     1.51500
Co1264     Co  0.14609419  0.90515021  0.84473119     1.51700
Co1265     Co  0.10407333  0.84357930  0.85110923     1.51600
Co1266     Co  0.09605450  0.89941121  0.90699052     1.51500
O1267       O  0.12383942  0.87658752  0.87556936    -1.42600
C1268       C  0.10496938  0.84275552  0.95115271     1.08900
C1269       C  0.07972830  0.88633057  0.80764822     1.09000
C1270       C  0.09477243  0.79815462  0.89696230     1.08900
C1271       C  0.09118857  0.94644106  0.85307252     1.08900
O1272       O  0.37064861  0.67468844  0.82429729    -0.80700
O1273       O  0.37660232  0.66811788  0.92803831    -0.80700
O1274       O  0.30490902  0.62712671  0.84614190    -0.80700
O1275       O  0.43540341  0.63136419  0.90152548    -0.80700
O1276       O  0.31689516  0.67262243  0.86999400    -0.80800
O1277       O  0.42083420  0.67459942  0.87443922    -0.80700
O1278       O  0.40656209  0.62452244  0.93610089    -0.80700
O1279       O  0.34773284  0.63209386  0.80297859    -0.80700
C1280       C  0.35308777  0.66212952  0.80323538     1.09000
C1281       C  0.39662638  0.65197216  0.94489803     1.08900
C1282       C  0.29917414  0.65631629  0.85119145     1.09000
C1283       C  0.43989746  0.66038839  0.89347040     1.08900
O1284       O  0.44363909  0.61964284  0.84555163    -0.80700
O1285       O  0.31327535  0.61424578  0.90134537    -0.80800
O1286       O  0.37912209  0.57368610  0.82344922    -0.80700
O1287       O  0.37056063  0.58031914  0.92986897    -0.80700
O1288       O  0.34030729  0.62404109  0.93679310    -0.80700
O1289       O  0.40154765  0.61684615  0.80266297    -0.80700
O1290       O  0.43179026  0.57457880  0.87080750    -0.80700
O1291       O  0.32877748  0.57178843  0.87354601    -0.80700
Co1292     Co  0.40623032  0.64663958  0.83868750     1.51500
Co1293     Co  0.34789373  0.64590225  0.89576317     1.51700
Co1294     Co  0.34296853  0.60100084  0.83830383     1.51600
Co1295     Co  0.39971164  0.60113405  0.89615188     1.51500
O1296       O  0.37427984  0.62365028  0.86589362    -1.42600
C1297       C  0.44991204  0.59084668  0.85194476     1.08900
C1298       C  0.30966465  0.58510388  0.89332219     1.09000
C1299       C  0.39706102  0.58672703  0.80280813     1.08900
C1300       C  0.35037286  0.59693251  0.94651450     1.08900
O1301       O  0.33461579  0.87255260  0.68034502    -0.80700
O1302       O  0.43152717  0.87868893  0.67105621    -0.80700
O1303       O  0.35120318  0.80688569  0.64477106    -0.80700
O1304       O  0.40602292  0.94007893  0.63550765    -0.80700
O1305       O  0.38206492  0.82875206  0.68137701    -0.80800
O1306       O  0.38280266  0.92082698  0.67870518    -0.80700
O1307       O  0.44709517  0.89879115  0.62564744    -0.80700
O1308       O  0.30916472  0.84957998  0.64155884    -0.80700
C1309       C  0.31045371  0.85808874  0.67047270     1.09000
C1310       C  0.45141763  0.89491491  0.65503567     1.08900
C1311       C  0.36211798  0.80722574  0.67287830     1.09000
C1312       C  0.40011441  0.94169762  0.66506843     1.08900
O1313       O  0.35230492  0.94430509  0.62448345    -0.80700
O1314       O  0.40234087  0.80373839  0.62375713    -0.80800
O1315       O  0.33015156  0.87201253  0.57923126    -0.80700
O1316       O  0.41718311  0.87317033  0.57065383    -0.80700
O1317       O  0.44187829  0.84662871  0.60908118    -0.80700
O1318       O  0.31175678  0.90039430  0.61968226    -0.80700
O1319       O  0.36921485  0.92670943  0.57889427    -0.80700
O1320       O  0.37778097  0.81944478  0.58126713    -0.80700
Co1321     Co  0.34814878  0.90587641  0.65044784     1.51500
Co1322     Co  0.41162879  0.84308305  0.64642418     1.51700
Co1323     Co  0.34518847  0.84010369  0.61113638     1.51600
Co1324     Co  0.40642858  0.90625900  0.60289717     1.51500
O1325       O  0.37787957  0.87374031  0.62753065    -1.42600
C1326       C  0.35385848  0.94763980  0.59504206     1.08900
C1327       C  0.39629077  0.79965923  0.59501592     1.09000
C1328       C  0.31053784  0.89232282  0.59044180     1.08900
C1329       C  0.43967510  0.85487114  0.57985801     1.08900
C1330       C  0.27459494  0.00133086  0.52354941     0.01700
C1331       C  0.25296279  0.97502234  0.52212237     0.01700
C1332       C  0.22820520  0.97542097  0.49855270     0.01700
C1333       C  0.22537336  0.00152161  0.97648151     0.01700
C1334       C  0.24911362  0.52579448  0.97656910     0.01700
C1335       C  0.27239397  0.52672543  0.50118943     0.01700
C1336       C  0.31193915  0.52764277  0.60021025     0.02600
C1337       C  0.29176898  0.52581215  0.57437341    -0.13600
C1338       C  0.29763321  0.00328107  0.55030584     0.00100
C1339       C  0.32314401  0.98129329  0.55365186    -0.12100
C1340       C  0.33648091  0.97680011  0.58372104     0.02600
C1341       C  0.32918701  0.99995239  0.60704067    -0.11500
H1342       H  0.27109990  0.54083297  0.57417513     0.08200
H1343       H  0.33014146  0.96613376  0.53429826     0.05700
H1344       H  0.33846432  0.99839217  0.63059901     0.05500
C1345       C  0.31494416  0.60369951  0.52817961     0.02600
C1346       C  0.33236014  0.60996351  0.00061949    -0.13600
C1347       C  0.33591075  0.58678184  0.97690730     0.00100
C1348       C  0.31994460  0.55776609  0.98047189    -0.12100
C1349       C  0.29533321  0.55466166  0.00312763     0.02600
C1350       C  0.29266337  0.57876714  0.52669285    -0.11500
H1351       H  0.34612949  0.63170873  0.99928891     0.08200
H1352       H  0.32497184  0.53877306  0.96415546     0.05700
H1353       H  0.27361120  0.57876665  0.54366035     0.05500
C1354       C  0.14972745  0.53200304  0.93377598     0.02600
C1355       C  0.13950805  0.00385271  0.91967853    -0.13600
C1356       C  0.16001489  0.97824869  0.91722571     0.00100
C1357       C  0.19032418  0.98005861  0.93119816    -0.12100
C1358       C  0.19684296  0.00383845  0.95402420     0.02600
C1359       C  0.17521162  0.52971949  0.95523574    -0.11500
H1360       H  0.11724306  0.00362642  0.90694884     0.08200
H1361       H  0.20789647  0.96262646  0.92495415     0.05700
H1362       H  0.17681266  0.54717959  0.97366230     0.05500
C1363       C  0.22737472  0.59324853  0.92035504     0.02600
C1364       C  0.22846469  0.57482804  0.94776460    -0.13600
C1365       C  0.25084253  0.54967446  0.95007875     0.00100
C1366       C  0.27536389  0.54750128  0.92683043    -0.12100
C1367       C  0.27896082  0.57192173  0.90443753     0.02600
C1368       C  0.25384540  0.59320232  0.90082417    -0.11500
H1369       H  0.21189636  0.57987877  0.96645412     0.08200
H1370       H  0.29250955  0.52841221  0.92751320     0.05700
H1371       H  0.25578608  0.61220519  0.88400279     0.05500
C1372       C  0.22825912  0.91782428  0.58907881     0.02600
C1373       C  0.25413228  0.89742130  0.59030650    -0.13600
C1374       C  0.28165030  0.90324533  0.57340519     0.00100
C1375       C  0.28042149  0.92607327  0.54868779    -0.12100
C1376       C  0.25464150  0.94838030  0.54708095     0.02600
C1377       C  0.23059674  0.94566922  0.57068278    -0.11500
H1378       H  0.25372088  0.87740180  0.60650351     0.08200
H1379       H  0.29945973  0.92667917  0.53162433     0.05700
H1380       H  0.21312391  0.96412044  0.57375084     0.05500
C1381       C  0.16432286  0.91739208  0.52470605     0.02600
C1382       C  0.16158829  0.89809166  0.99861955    -0.13600
C1383       C  0.17961839  0.90350182  0.97189515     0.00100
C1384       C  0.20454720  0.92570317  0.97330310    -0.12100
C1385       C  0.20451659  0.94872809  0.49781160     0.02600
C1386       C  0.18157026  0.94570383  0.52210142    -0.11500
H1387       H  0.14369212  0.87972337  0.99861108     0.08200
H1388       H  0.22240775  0.92608227  0.95492033     0.05700
H1389       H  0.17833227  0.96410472  0.53948809     0.05500
C1390       C  0.02364179  0.74534817  0.97550740     0.01700
C1391       C  0.49865793  0.72233397  0.97446614     0.01700
C1392       C  0.47500618  0.72162158  0.99866547     0.01700
C1393       C  0.47412272  0.74656244  0.52138450     0.01700
C1394       C  0.49759766  0.77088624  0.52144567     0.01700
C1395       C  0.02368352  0.76936442  0.99968877     0.01700
C1396       C  0.09205265  0.82471307  0.97769983     0.02600
C1397       C  0.06081529  0.81268440  0.97877829    -0.13600
C1398       C  0.05203043  0.79130049  0.00310957     0.00100
C1399       C  0.07196988  0.79015883  0.53006193    -0.12100
C1400       C  0.10001408  0.80836740  0.53096479     0.02600
C1401       C  0.11240171  0.81897859  0.50263815    -0.11500
H1402       H  0.04451153  0.81817315  0.95996856     0.08200
H1403       H  0.06673879  0.77477274  0.54968197     0.05700
H1404       H  0.13621510  0.82864592  0.50226334     0.05500
C1405       C  0.08351931  0.76894615  0.91233696     0.02600
C1406       C  0.05376615  0.76570619  0.92727987    -0.13600
C1407       C  0.05060457  0.74323548  0.95207140     0.00100
C1408       C  0.07427693  0.71935311  0.95498030    -0.12100
C1409       C  0.09961332  0.71813969  0.93346955     0.02600
C1410       C  0.10674432  0.74584505  0.91757255    -0.11500
H1411       H  0.03517953  0.78291569  0.92289967     0.08200
H1412       H  0.07390548  0.70254895  0.97421527     0.05700
H1413       H  0.12986214  0.74752713  0.90650021     0.05500
C1414       C  0.46838482  0.84787725  0.56033010     0.02600
C1415       C  0.49594750  0.85463657  0.57675377    -0.13600
C1416       C  0.01535574  0.82977551  0.58747680     0.00100
C1417       C  0.01292894  0.80036215  0.57185186    -0.12100
C1418       C  0.49413739  0.79818611  0.54425106     0.02600
C1419       C  0.47024540  0.82170745  0.53981172    -0.11500
H1420       H  0.49927271  0.87850885  0.58387275     0.08200
H1421       H  0.02730707  0.78055421  0.57941957     0.05700
H1422       H  0.45343376  0.81985265  0.52074577     0.05500
C1423       C  0.41188074  0.77049402  0.58180146     0.02600
C1424       C  0.42637121  0.76742181  0.55209313    -0.13600
C1425       C  0.45151468  0.74502637  0.54831255     0.00100
C1426       C  0.45804137  0.72306610  0.57263440    -0.12100
C1427       C  0.43745526  0.72032788  0.59804231     0.02600
C1428       C  0.41804513  0.74655239  0.60407813    -0.11500
H1429       H  0.42010773  0.78362432  0.53340077     0.08200
H1430       H  0.47879844  0.70808369  0.57186451     0.05700
H1431       H  0.40346409  0.74581298  0.62477858     0.05500
C1432       C  0.02225640  0.65340622  0.92165989     0.02600
C1433       C  0.02094902  0.67369084  0.94751181    -0.13600
C1434       C  0.99790739  0.69816665  0.94861069     0.00100
C1435       C  0.47389266  0.69892332  0.92521093    -0.12100
C1436       C  0.47050906  0.67287413  0.90488549     0.02600
C1437       C  0.99545182  0.65102286  0.90309402    -0.11500
H1438       H  0.03787692  0.67048596  0.96607483     0.08200
H1439       H  0.45669125  0.71796143  0.92465173     0.05700
H1440       H  0.99370429  0.63050608  0.88808368     0.05500
C1441       C  0.41076430  0.66272350  0.97477911     0.02600
C1442       C  0.42724638  0.69149341  0.97776112    -0.13600
C1443       C  0.45161358  0.69435265  0.00042264     0.00100
C1444       C  0.45382454  0.67042565  0.52405802    -0.12100
C1445       C  0.43127083  0.64594742  0.52561228     0.02600
C1446       C  0.41380903  0.63975730  0.99858877    -0.11500
H1447       H  0.42279195  0.71036297  0.96112774     0.08200
H1448       H  0.47245661  0.67045744  0.54124036     0.05700
H1449       H  0.39980043  0.61814570  0.99766059     0.05500
C1450       C  0.27209544  0.72833444  0.74746666     0.01700
C1451       C  0.24715257  0.72703396  0.77011907     0.01700
C1452       C  0.22250667  0.74996979  0.76915649     0.01700
C1453       C  0.22220072  0.77443038  0.74562489     0.01700
C1454       C  0.24918939  0.77769115  0.72497564     0.01700
C1455       C  0.27345975  0.75370737  0.72494578     0.01700
C1456       C  0.27016306  0.66729545  0.83409662     0.02600
C1457       C  0.24793675  0.64342485  0.82642981    -0.13600
C1458       C  0.22060589  0.65036127  0.80994237     0.00100
C1459       C  0.22213601  0.67597335  0.78911683    -0.12100
C1460       C  0.24532132  0.69990360  0.79333220     0.02600
C1461       C  0.26658431  0.69707316  0.81925339    -0.11500
H1462       H  0.24955080  0.61967680  0.83590047     0.08200
H1463       H  0.20567166  0.67683985  0.76976520     0.05700
H1464       H  0.28185847  0.71654607  0.82577090     0.05500
C1465       C  0.15023288  0.82282543  0.71538195     0.02600
C1466       C  0.14461447  0.84171052  0.74165221    -0.13600
C1467       C  0.16123051  0.83761993  0.76909304     0.00100
C1468       C  0.18835645  0.81854462  0.76909041    -0.12100
C1469       C  0.19428096  0.79729857  0.74396265     0.02600
C1470       C  0.17296215  0.79807347  0.71781912    -0.11500
H1471       H  0.12870225  0.86156207  0.74031567     0.08200
H1472       H  0.20441386  0.82051269  0.78858310     0.05700
H1473       H  0.17512351  0.78095871  0.69894799     0.05500
C1474       C  0.35410459  0.77828785  0.69174909     0.02600
C1475       C  0.36126553  0.75015268  0.67595627    -0.13600
C1476       C  0.33749603  0.72841057  0.66607342     0.00100
C1477       C  0.30645089  0.73349946  0.67791079    -0.12100
C1478       C  0.30169482  0.75579272  0.70295729     0.02600
C1479       C  0.32637761  0.77753568  0.70979868    -0.11500
H1480       H  0.38581226  0.74705790  0.66966052     0.08200
H1481       H  0.28736866  0.71803202  0.67063794     0.05700
H1482       H  0.32581401  0.79189999  0.73076009     0.05500
C1483       C  0.22953690  0.84546165  0.66935880     0.02600
C1484       C  0.25444489  0.86638452  0.67434547    -0.13600
C1485       C  0.28135060  0.85538787  0.68968580     0.00100
C1486       C  0.27745038  0.82947358  0.71028452    -0.12100
C1487       C  0.25288929  0.80717154  0.70504151     0.02600
C1488       C  0.23114311  0.81434656  0.68110418    -0.11500
H1489       H  0.25513788  0.88887010  0.66174723     0.08200
H1490       H  0.29299570  0.82759270  0.73016732     0.05700
H1491       H  0.21468131  0.79673186  0.67281393     0.05500
C1492       C  0.17592796  0.77348591  0.84149680     0.02600
C1493       C  0.20151379  0.77031655  0.82072225    -0.13600
C1494       C  0.19835385  0.74942504  0.79476917     0.00100
C1495       C  0.17319057  0.72709310  0.79453023    -0.12100
C1496       C  0.15304482  0.72520777  0.82064534     0.02600
C1497       C  0.15215175  0.75060670  0.84097735    -0.11500
H1498       H  0.22148883  0.78643065  0.82225898     0.08200
H1499       H  0.16989112  0.71084057  0.77519911     0.05700
H1500       H  0.13188694  0.75241124  0.85659200     0.05500
C1501       C  0.34273105  0.67907190  0.77457433     0.02600
C1502       C  0.34880558  0.66239591  0.74727902    -0.13600
C1503       C  0.32803786  0.66228728  0.72173696     0.00100
C1504       C  0.30045721  0.68082492  0.72370878    -0.12100
C1505       C  0.29769110  0.70365889  0.74826014     0.02600
C1506       C  0.31968366  0.70293033  0.77354857    -0.15100
H1507       H  0.37015511  0.64829051  0.74673697     0.08200
H1508       H  0.28302691  0.67962370  0.70514930     0.05700
H1509       H  0.31875878  0.72025740  0.79223288     0.05500
C1510       C  0.02906215  0.99844987  0.77190854     0.01700
C1511       C  0.02802097  0.97354972  0.74884634     0.01700
C1512       C  0.00569883  0.97571428  0.72349337     0.01700
C1513       C  0.48213577  0.00028057  0.72357669     0.01700
C1514       C  0.48184739  0.52339155  0.74798333     0.01700
C1515       C  0.00572938  0.52297722  0.77153463     0.01700
C1516       C  0.02959702  0.59954857  0.81170011     0.02600
C1517       C  0.00210321  0.60515846  0.82893182    -0.13600
C1518       C  0.48013037  0.58055134  0.83604879     0.00100
C1519       C  0.48493268  0.55111743  0.82095944    -0.12100
C1520       C  0.00695555  0.54930044  0.79527561     0.02600
C1521       C  0.02910180  0.57411402  0.79084259    -0.11500
H1522       H  0.99971419  0.62864936  0.83891994     0.08200
H1523       H  0.46980222  0.53121515  0.82677732     0.05700
H1524       H  0.04575849  0.57396441  0.77143826     0.05500
C1525       C  0.10110707  0.52502922  0.81895732     0.02600
C1526       C  0.07944277  0.52285256  0.79404822    -0.13600
C1527       C  0.05481046  0.99972352  0.79602746     0.00100
C1528       C  0.05395337  0.97953170  0.82249406    -0.12100
C1529       C  0.08096948  0.97670690  0.84117936     0.02600
C1530       C  0.10500891  0.99884780  0.83838346    -0.11500
H1531       H  0.08126391  0.53935615  0.77466662     0.08200
H1532       H  0.03352901  0.96505670  0.82775457     0.05700
H1533       H  0.12559010  0.99751873  0.85355217     0.05500
C1534       C  0.06096896  0.89448168  0.77949836     0.02600
C1535       C  0.04413331  0.92316007  0.77825514    -0.13600
C1536       C  0.04790931  0.94377486  0.75224786     0.00100
C1537       C  0.06853042  0.93355879  0.72804388    -0.12100
C1538       C  0.07629676  0.90107828  0.72511355     0.02600
C1539       C  0.07108432  0.88106048  0.75101726    -0.11500
H1540       H  0.02751744  0.92810430  0.79688527     0.08200
H1541       H  0.07702360  0.95021150  0.71062266     0.05700
H1542       H  0.07899421  0.85657191  0.75058643     0.05500
C1543       C  0.42497237  0.58800693  0.72222766     0.02600
C1544       C  0.45365032  0.57151975  0.72543986    -0.13600
C1545       C  0.45610488  0.54796136  0.74934421     0.00100
C1546       C  0.43307247  0.54736795  0.77399471    -0.12100
C1547       C  0.40894663  0.57015787  0.77450702     0.02600
C1548       C  0.40316692  0.58666585  0.74714108    -0.11500
H1549       H  0.47235666  0.57475258  0.70823998     0.08200
H1550       H  0.43372972  0.52968250  0.79238532     0.05700
H1551       H  0.38109606  0.59959581  0.74609538     0.05500
C1552       C  0.42310459  0.52405435  0.65872687     0.02600
C1553       C  0.40433920  0.99791264  0.65906153    -0.13600
C1554       C  0.40939698  0.97226572  0.67908708     0.00100
C1555       C  0.43199383  0.97554837  0.70278104    -0.12100
C1556       C  0.45535510  0.99967277  0.70016833     0.02600
C1557       C  0.45148811  0.52291981  0.67608966    -0.11500
H1558       H  0.38656903  0.99613380  0.64111469     0.08200
H1559       H  0.43235571  0.95867128  0.72196729     0.05700
H1560       H  0.46943438  0.54072918  0.67195618     0.05500
C1561       C  0.48080299  0.90948805  0.66749798     0.02600
C1562       C  0.00625613  0.90972487  0.64662150    -0.13600
C1563       C  0.03239637  0.92961047  0.64990628     0.00100
C1564       C  0.03067207  0.95359045  0.67300709    -0.12100
C1565       C  0.00652178  0.95207867  0.69680722     0.02600
C1566       C  0.48310086  0.92778334  0.69485283    -0.11500
H1567       H  0.00721616  0.89125846  0.63012671     0.08200
H1568       H  0.04904976  0.97154213  0.67405542     0.05700
H1569       H  0.46636899  0.92380152  0.71374490     0.05500
O1570       O  0.12349510  0.57717830  0.82255063    -0.80700
O1571       O  0.12698349  0.67421561  0.82276022    -0.80700
O1572       O  0.05870126  0.59810272  0.85815233    -0.80700
O1573       O  0.19191027  0.65209503  0.85737553    -0.80700
O1574       O  0.07981588  0.62614296  0.81897023    -0.80800
O1575       O  0.17016946  0.62466588  0.81850833    -0.80700
O1576       O  0.14946304  0.69354841  0.86504359    -0.80700
O1577       O  0.10112568  0.55619121  0.86432524    -0.80700
C1578       C  0.10808383  0.55490517  0.83511751     1.09000
C1579       C  0.14322543  0.69555239  0.83585724     1.08900
C1580       C  0.05854742  0.60735283  0.82936857     1.09000
C1581       C  0.19164653  0.64324545  0.82841613     1.08900
O1582       O  0.19565320  0.60016178  0.87641024    -0.80700
O1583       O  0.05459735  0.65008451  0.87735840    -0.80800
O1584       O  0.12414572  0.58191534  0.92361310    -0.80700
O1585       O  0.12620358  0.66827717  0.92384420    -0.80700
O1586       O  0.09815351  0.69071980  0.88547026    -0.80700
O1587       O  0.15209466  0.55925289  0.88521876    -0.80700
O1588       O  0.17670864  0.62195543  0.91932938    -0.80700
O1589       O  0.07388626  0.62739034  0.91959330    -0.80700
Co1590     Co  0.15697531  0.59307730  0.85086180     1.51500
Co1591     Co  0.09332307  0.65744587  0.85124982     1.51700
Co1592     Co  0.09247586  0.59397355  0.89135814     1.51600
Co1593     Co  0.15807514  0.65580519  0.89137409     1.51500
O1594       O  0.12517304  0.62514275  0.87118950    -1.42600
C1595       C  0.19807833  0.60568500  0.90561987     1.08900
C1596       C  0.05214627  0.64333930  0.90637982     1.09000
C1597       C  0.14316314  0.56044150  0.91430657     1.08900
C1598       C  0.10709476  0.68968322  0.91440950     1.08900
O1599       O  0.37849920  0.55564290  0.65031499    -0.80700
O1600       O  0.39221501  0.69038329  0.59771405    -0.80700
O1601       O  0.42464999  0.62044596  0.57647648    -0.80700
O1602       O  0.42707767  0.61646772  0.67137810    -0.80700
O1603       O  0.38552911  0.64915892  0.55672126    -0.80800
O1604       O  0.38202082  0.59767794  0.69078178    -0.80700
O1605       O  0.43277413  0.66702715  0.62152620    -0.80700
O1606       O  0.42162066  0.57182743  0.62526349    -0.80700
C1607       C  0.40803948  0.55252645  0.64423707     1.09000
C1608       C  0.42143354  0.68984875  0.60497907     1.08900
C1609       C  0.41401449  0.63883773  0.55518437     1.09000
C1610       C  0.41187480  0.60108991  0.69266718     1.08900
O1611       O  0.32621152  0.63163366  0.67238758    -0.80700
O1612       O  0.32334833  0.62956740  0.57951888    -0.80800
O1613       O  0.35935777  0.55617315  0.59905613    -0.80700
O1614       O  0.37821250  0.69429388  0.65068775    -0.80700
O1615       O  0.33237089  0.68094191  0.62993628    -0.80700
O1616       O  0.31997035  0.58051811  0.62364013    -0.80700
O1617       O  0.37138847  0.65147300  0.69061314    -0.80700
O1618       O  0.36101830  0.59942423  0.55800284    -0.80700
Co1619     Co  0.35182492  0.59475240  0.65590139     1.51500
Co1620     Co  0.35776227  0.65914293  0.59419168     1.51700
Co1621     Co  0.39207953  0.59018537  0.59270453     1.51600
Co1622     Co  0.40182977  0.65360764  0.65512418     1.51500
O1623       O  0.37582363  0.62451054  0.62443659    -1.42600
C1624       C  0.34142863  0.64810247  0.69272676     1.08900
C1625       C  0.33277950  0.61056160  0.55771665     1.09000
C1626       C  0.33020978  0.55718954  0.60711600     1.08900
C1627       C  0.34883253  0.69966528  0.64761471     1.08900
O1628       O  0.19759817  0.84952893  0.62373370    -0.80700
O1629       O  0.05432366  0.82437496  0.63024342    -0.80700
O1630       O  0.15154899  0.86512900  0.67976410    -0.80700
O1631       O  0.10585079  0.85941250  0.55289690    -0.80700
O1632       O  0.11585003  0.82585873  0.66977749    -0.80800
O1633       O  0.12001372  0.81967783  0.58271251    -0.80700
O1634       O  0.05897271  0.86239462  0.59309058    -0.80700
O1635       O  0.18233742  0.87544170  0.66776866    -0.80700
C1636       C  0.20178734  0.85679124  0.65294408     1.09000
C1637       C  0.04391189  0.83874827  0.60542807     1.08900
C1638       C  0.13907584  0.83735666  0.68557858     1.09000
C1639       C  0.10779317  0.82960785  0.55753767     1.08900
O1640       O  0.16098427  0.87464455  0.55989208    -0.80700
O1641       O  0.07880008  0.87055533  0.67691805    -0.80800
O1642       O  0.17885399  0.92095443  0.61877223    -0.80700
O1643       O  0.07940887  0.92516571  0.61568324    -0.80700
O1644       O  0.06489337  0.88548537  0.64699572    -0.80700
O1645       O  0.19470305  0.87470978  0.59902845    -0.80700
O1646       O  0.13240843  0.91851182  0.57134119    -0.80700
O1647       O  0.11879767  0.90297565  0.68927561    -0.80700
Co1648     Co  0.15671955  0.84529051  0.59803603     1.51500
Co1649     Co  0.09297804  0.84875561  0.63473755     1.51700
Co1650     Co  0.14706947  0.90482554  0.65142866     1.51600
Co1651     Co  0.09680945  0.89198557  0.58613854     1.51500
O1652       O  0.12677631  0.87483300  0.62062794    -1.42600
C1653       C  0.15251099  0.90370846  0.55417139     1.08900
C1654       C  0.09278411  0.88977391  0.69643579     1.09000
C1655       C  0.19862883  0.90481919  0.60281822     1.08900
C1656       C  0.06174400  0.91431467  0.63765955     1.08900
O1657       O  0.67967008  0.31038511  0.38636687    -0.80700
O1658       O  0.65082415  0.44394787  0.37342011    -0.80700
O1659       O  0.62519434  0.33319235  0.31147835    -0.80700
O1660       O  0.63625155  0.40534327  0.43647148    -0.80700
O1661       O  0.65495322  0.37650019  0.30941414    -0.80800
O1662       O  0.67283611  0.36655489  0.42639035    -0.80700
O1663       O  0.62970558  0.43262333  0.42111647    -0.80700
O1664       O  0.64163197  0.31219861  0.34926998    -0.80700
C1665       C  0.66728136  0.30011324  0.36065483     1.09000
C1666       C  0.64705234  0.45016907  0.40258064     1.08900
C1667       C  0.64666722  0.34976700  0.29858313     1.09000
C1668       C  0.66300834  0.39044937  0.44229406     1.08900
O1669       O  0.62753402  0.33107511  0.43051200    -0.80700
O1670       O  0.60295247  0.40531194  0.31557349    -0.80800
O1671       O  0.57785304  0.31162952  0.37342539    -0.80700
O1672       O  0.58724611  0.44037926  0.38267057    -0.80700
O1673       O  0.60573326  0.42977327  0.33406361    -0.80700
O1674       O  0.62012738  0.30996602  0.40423710    -0.80700
O1675       O  0.59205144  0.36895497  0.44264006    -0.80700
O1676       O  0.57404025  0.36022986  0.32168327    -0.80700
Co1677     Co  0.65098000  0.34578513  0.38993906     1.51500
Co1678     Co  0.64408798  0.40547926  0.34543321     1.51700
Co1679     Co  0.60443221  0.34311468  0.35162549     1.51600
Co1680     Co  0.59523632  0.40135449  0.40911258     1.51500
O1681       O  0.62146369  0.37778332  0.37721052    -1.42600
C1682       C  0.60552466  0.34295236  0.44862146     1.08900
C1683       C  0.57956783  0.38606557  0.30735573     1.09000
C1684       C  0.59321746  0.29833337  0.39523297     1.08900
C1685       C  0.58978096  0.44696076  0.35356328     1.08900
O1686       O  0.87049567  0.17438924  0.32421588    -0.80700
O1687       O  0.87649750  0.16810198  0.42789263    -0.80700
O1688       O  0.80480626  0.12687823  0.34608482    -0.80700
O1689       O  0.93534018  0.13127978  0.40148285    -0.80700
O1690       O  0.81681341  0.17240781  0.36987274    -0.80800
O1691       O  0.92069904  0.17443905  0.37431833    -0.80700
O1692       O  0.90648549  0.12454869  0.43606226    -0.80700
O1693       O  0.84763830  0.13174259  0.30294184    -0.80700
C1694       C  0.85292922  0.16178925  0.30318679     1.09000
C1695       C  0.89653919  0.15202340  0.44479100     1.08900
C1696       C  0.79906866  0.15606590  0.35112499     1.09000
C1697       C  0.93979385  0.16029081  0.39336614     1.08900
O1698       O  0.94353182  0.11946101  0.34551865    -0.80700
O1699       O  0.81317550  0.11417613  0.40134426    -0.80800
O1700       O  0.87901545  0.07339005  0.32351416    -0.80700
O1701       O  0.87055231  0.08023063  0.42987025    -0.80700
O1702       O  0.84028738  0.12395532  0.43672291    -0.80700
O1703       O  0.90144762  0.11652579  0.30266287    -0.80700
O1704       O  0.93177197  0.07444698  0.37089972    -0.80700
O1705       O  0.82862034  0.07162849  0.37363844    -0.80700
Co1706     Co  0.90610915  0.14640112  0.33862101     1.51500
Co1707     Co  0.84782772  0.14576309  0.39567297     1.51700
Co1708     Co  0.84286109  0.10073164  0.33832299     1.51600
Co1709     Co  0.89966674  0.10102651  0.39616136     1.51500
O1710       O  0.87419403  0.12343468  0.36585952    -1.42600
C1711       C  0.94986788  0.09070589  0.35201133     1.08900
C1712       C  0.80951496  0.08502956  0.39337278     1.09000
C1713       C  0.89695207  0.08640789  0.30285012     1.08900
C1714       C  0.85037945  0.09687822  0.44648622     1.08900
O1715       O  0.83428947  0.37234978  0.18036920    -0.80700
O1716       O  0.93127731  0.37862099  0.17129807    -0.80700
O1717       O  0.85109956  0.30683249  0.14462949    -0.80700
O1718       O  0.90571112  0.44015982  0.13602563    -0.80700
O1719       O  0.88184079  0.32863735  0.18136141    -0.80800
O1720       O  0.88238291  0.42065941  0.17905213    -0.80700
O1721       O  0.94689321  0.39896246  0.12600453    -0.80700
O1722       O  0.80898558  0.34946951  0.14144864    -0.80700
C1723       C  0.81018378  0.35786498  0.17039762     1.09000
C1724       C  0.95120728  0.39488271  0.15536918     1.08900
C1725       C  0.86190970  0.30713450  0.17277995     1.09000
C1726       C  0.89972313  0.44161233  0.16558949     1.08900
O1727       O  0.85201394  0.44440382  0.12480500    -0.80700
O1728       O  0.90225377  0.30384233  0.12361599    -0.80800
O1729       O  0.83013418  0.37212398  0.07923856    -0.80700
O1730       O  0.91718288  0.37351151  0.07083443    -0.80700
O1731       O  0.94177133  0.34682682  0.10922739    -0.80700
O1732       O  0.81155297  0.40035553  0.11970459    -0.80700
O1733       O  0.86904230  0.42691283  0.07922118    -0.80700
O1734       O  0.87772584  0.31971447  0.08116884    -0.80700
Co1735     Co  0.84784338  0.40581285  0.15061332     1.51500
Co1736     Co  0.91144816  0.34310775  0.14649230     1.51700
Co1737     Co  0.84509805  0.34016463  0.11108261     1.51600
Co1738     Co  0.90625965  0.40646357  0.10322580     1.51500
O1739       O  0.87770026  0.37380129  0.12765983    -1.42600
C1740       C  0.85358031  0.44777204  0.09536138     1.08900
C1741       C  0.89620810  0.29987666  0.09484956     1.09000
C1742       C  0.81043866  0.39234088  0.09043939     1.08900
C1743       C  0.93962287  0.35512248  0.08001574     1.08900
C1744       C  0.77433135  0.50101009  0.02335382     0.01700
C1745       C  0.75286513  0.47446465  0.02151916     0.01700
C1746       C  0.72841705  0.47453117  0.99748623     0.01700
C1747       C  0.72558459  0.50106496  0.47585181     0.01700
C1748       C  0.74909912  0.02605593  0.47681345     0.01700
C1749       C  0.77255617  0.02693972  0.00129890     0.01700
C1750       C  0.81245509  0.02759810  0.10018511     0.02600
C1751       C  0.79225919  0.02587391  0.07440475    -0.13600
C1752       C  0.79720945  0.50305990  0.05032484     0.00100
C1753       C  0.82281105  0.48119988  0.05383275    -0.12100
C1754       C  0.83606672  0.47683561  0.08396504     0.02600
C1755       C  0.82858781  0.50001014  0.10720478    -0.11500
H1756       H  0.77161741  0.04093366  0.07427605     0.08200
H1757       H  0.82997029  0.46603865  0.03454088     0.05700
H1758       H  0.83764081  0.49845980  0.13083810     0.05500
C1759       C  0.81505968  0.10375763  0.02816085     0.02600
C1760       C  0.83245160  0.11000704  0.50060108    -0.13600
C1761       C  0.83599102  0.08680046  0.47690541     0.00100
C1762       C  0.82002803  0.05781463  0.48048855    -0.12100
C1763       C  0.79542783  0.05480008  0.50313134     0.02600
C1764       C  0.79274820  0.07889160  0.02667306    -0.11500
H1765       H  0.84620440  0.13175789  0.49924905     0.08200
H1766       H  0.82501749  0.03880089  0.46417988     0.05700
H1767       H  0.77371327  0.07885492  0.04366753     0.05500
C1768       C  0.64961082  0.03163722  0.43374748     0.02600
C1769       C  0.63978662  0.50432956  0.41930075    -0.13600
C1770       C  0.66039540  0.47894212  0.41631760     0.00100
C1771       C  0.69058135  0.48029391  0.43049489    -0.12100
C1772       C  0.69708574  0.50376590  0.45353543     0.02600
C1773       C  0.67500132  0.02960097  0.45533205    -0.11500
H1774       H  0.61739503  0.50417916  0.40677328     0.08200
H1775       H  0.70804738  0.46274356  0.42429136     0.05700
H1776       H  0.67655008  0.04729055  0.47354233     0.05500
C1777       C  0.72721941  0.09334320  0.42046279     0.02600
C1778       C  0.72830511  0.07492768  0.44788090    -0.13600
C1779       C  0.75073022  0.04982077  0.45024172     0.00100
C1780       C  0.77521279  0.04758035  0.42697399    -0.12100
C1781       C  0.77879199  0.07193627  0.40452567     0.02600
C1782       C  0.75369180  0.09325076  0.40090889    -0.11500
H1783       H  0.71171862  0.07995805  0.46656193     0.08200
H1784       H  0.79235799  0.02849283  0.42768826     0.05700
H1785       H  0.75561228  0.11218128  0.38399208     0.05500
C1786       C  0.72808461  0.41756986  0.08870800     0.02600
C1787       C  0.75403417  0.39729757  0.09013842    -0.13600
C1788       C  0.78158168  0.40317149  0.07332284     0.00100
C1789       C  0.78034845  0.42581887  0.04845189    -0.12100
C1790       C  0.75443844  0.44793654  0.04656088     0.02600
C1791       C  0.73031410  0.44527963  0.07009564    -0.11500
H1792       H  0.75364054  0.37733672  0.10640480     0.08200
H1793       H  0.79948505  0.42646287  0.03149649     0.05700
H1794       H  0.71272213  0.46365025  0.07298111     0.05500
C1795       C  0.66444573  0.41653069  0.02381196     0.02600
C1796       C  0.66172163  0.39668177  0.49804521    -0.13600
C1797       C  0.67946660  0.40141563  0.47098111     0.00100
C1798       C  0.70404343  0.42441555  0.47176274    -0.12100
C1799       C  0.70454926  0.44761270  0.99642968     0.02600
C1800       C  0.68175949  0.44472742  0.02082870    -0.11500
H1801       H  0.64345152  0.37875598  0.49843146     0.08200
H1802       H  0.72154570  0.42481434  0.45305811     0.05700
H1803       H  0.67863343  0.46328167  0.03806574     0.05500
C1804       C  0.52362528  0.24551265  0.47491072     0.01700
C1805       C  0.99850965  0.22255264  0.47419976     0.01700
C1806       C  0.97493254  0.22193230  0.49846699     0.01700
C1807       C  0.97422824  0.24693805  0.02113624     0.01700
C1808       C  0.99772303  0.27136317  0.02090248     0.01700
C1809       C  0.52384582  0.26980901  0.49880345     0.01700
C1810       C  0.59349933  0.32388252  0.47525407     0.02600
C1811       C  0.56193356  0.31237703  0.47684571    -0.13600
C1812       C  0.55255954  0.29168980  0.50168970     0.00100
C1813       C  0.57254381  0.29076793  0.02852403    -0.12100
C1814       C  0.60074489  0.30875668  0.02917395     0.02600
C1815       C  0.61350915  0.31890731  0.00060012    -0.11500
H1816       H  0.54557269  0.31810191  0.45815468     0.08200
H1817       H  0.56703267  0.27599290  0.04851124     0.05700
H1818       H  0.63738930  0.32828462  0.00002712     0.05500
C1819       C  0.58288628  0.26930826  0.41153644     0.02600
C1820       C  0.55316113  0.26554139  0.42634757    -0.13600
C1821       C  0.55040653  0.24328536  0.45133168     0.00100
C1822       C  0.57441078  0.21977337  0.45439624    -0.12100
C1823       C  0.59980122  0.21886874  0.43292062     0.02600
C1824       C  0.60662890  0.24679779  0.41705758    -0.11500
H1825       H  0.53426735  0.28238716  0.42183905     0.08200
H1826       H  0.57419430  0.20296406  0.47363271     0.05700
H1827       H  0.62969670  0.24899402  0.40595307     0.05500
C1828       C  0.96837469  0.34803588  0.06052071     0.02600
C1829       C  0.99592578  0.35460193  0.07701565    -0.13600
C1830       C  0.51538384  0.32971964  0.08720349     0.00100
C1831       C  0.51315162  0.30050294  0.07123068    -0.12100
C1832       C  0.99433098  0.29859569  0.04378224     0.02600
C1833       C  0.97026415  0.32205799  0.03970769    -0.11500
H1834       H  0.99925956  0.37852689  0.08453150     0.08200
H1835       H  0.52766774  0.28069604  0.07855345     0.05700
H1836       H  0.95338653  0.32032454  0.02069316     0.05500
C1837       C  0.91169718  0.27072808  0.08151314     0.02600
C1838       C  0.92640860  0.26780572  0.05188847    -0.13600
C1839       C  0.95160697  0.24545315  0.04815269     0.00100
C1840       C  0.95791338  0.22334112  0.07243597    -0.12100
C1841       C  0.93714846  0.22051325  0.09773697     0.02600
C1842       C  0.91759508  0.24665252  0.10368955    -0.11500
H1843       H  0.92019544  0.28404298  0.03321282     0.08200
H1844       H  0.97864039  0.20832106  0.07171015     0.05700
H1845       H  0.90279385  0.24580994  0.12417597     0.05500
C1846       C  0.52228356  0.15335417  0.42169369     0.02600
C1847       C  0.52096384  0.17376918  0.44743479    -0.13600
C1848       C  0.49785196  0.19816653  0.44844212     0.00100
C1849       C  0.97368295  0.19892346  0.42508006    -0.12100
C1850       C  0.97037610  0.17285205  0.40477702     0.02600
C1851       C  0.49545570  0.15081488  0.40315681    -0.11500
H1852       H  0.53801169  0.17081780  0.46593639     0.08200
H1853       H  0.95645434  0.21793367  0.42446899     0.05700
H1854       H  0.49373542  0.13021633  0.38825287     0.05500
C1855       C  0.91066975  0.16287669  0.47465543     0.02600
C1856       C  0.92708149  0.19171215  0.47763562    -0.13600
C1857       C  0.95145547  0.19466673  0.50030984     0.00100
C1858       C  0.95371216  0.17073323  0.02393397    -0.12100
C1859       C  0.93119873  0.14621097  0.02550724     0.02600
C1860       C  0.91374256  0.13995252  0.49849270    -0.11500
H1861       H  0.92258368  0.21055461  0.46098508     0.08200
H1862       H  0.97239080  0.17074427  0.04106374     0.05700
H1863       H  0.89980274  0.11829506  0.49757830     0.05500
C1864       C  0.77182093  0.22819677  0.24766076     0.01700
C1865       C  0.74700101  0.22707062  0.27054148     0.01700
C1866       C  0.72243288  0.25014266  0.26992577     0.01700
C1867       C  0.72193453  0.27433490  0.24608020     0.01700
C1868       C  0.74882220  0.27748451  0.22516386     0.01700
C1869       C  0.77313850  0.25352106  0.22508109     0.01700
C1870       C  0.77005986  0.16703540  0.33404983     0.02600
C1871       C  0.74785260  0.14317565  0.32626758    -0.13600
C1872       C  0.72047916  0.15019807  0.30984889     0.00100
C1873       C  0.72190248  0.17600201  0.28925641    -0.12100
C1874       C  0.74513057  0.19986171  0.29357303     0.02600
C1875       C  0.76644583  0.19688488  0.31940304    -0.11500
H1876       H  0.74946823  0.11940904  0.33571566     0.08200
H1877       H  0.70524836  0.17712679  0.27008084     0.05700
H1878       H  0.78174702  0.21632096  0.32597573     0.05500
C1879       C  0.65017965  0.32300877  0.21575140     0.02600
C1880       C  0.64466917  0.34192860  0.24209885    -0.13600
C1881       C  0.66109759  0.33753672  0.26971233     0.00100
C1882       C  0.68784854  0.31791871  0.26988283    -0.12100
C1883       C  0.69399881  0.29713884  0.24444845     0.02600
C1884       C  0.67284431  0.29819472  0.21817464    -0.11500
H1885       H  0.62878540  0.36181791  0.24078262     0.08200
H1886       H  0.70345248  0.31896197  0.28984541     0.05700
H1887       H  0.67499073  0.28113740  0.19925734     0.05500
C1888       C  0.85378973  0.27819088  0.19161715     0.02600
C1889       C  0.86097509  0.25007915  0.17582238    -0.13600
C1890       C  0.83722990  0.22827442  0.16604814     0.00100
C1891       C  0.80618356  0.23330372  0.17795558    -0.12100
C1892       C  0.80140155  0.25560590  0.20301117     0.02600
C1893       C  0.82608120  0.27742259  0.20973201    -0.11500
H1894       H  0.88546598  0.24710952  0.16935029     0.08200
H1895       H  0.78711477  0.21782327  0.17068127     0.05700
H1896       H  0.82553807  0.29184488  0.23065233     0.05500
C1897       C  0.72927874  0.34501272  0.16908202     0.02600
C1898       C  0.75414651  0.36597363  0.17408626    -0.13600
C1899       C  0.78101761  0.35505880  0.18951826     0.00100
C1900       C  0.77708894  0.32921582  0.21021404    -0.12100
C1901       C  0.75249774  0.30690279  0.20507637     0.02600
C1902       C  0.73083547  0.31394819  0.18100674    -0.11500
H1903       H  0.75483919  0.38844819  0.16146939     0.08200
H1904       H  0.79260291  0.32741931  0.23012985     0.05700
H1905       H  0.71440287  0.29629280  0.17274225     0.05500
C1906       C  0.67614848  0.27102559  0.34428381     0.02600
C1907       C  0.70139837  0.26893875  0.32265656    -0.13600
C1908       C  0.69804854  0.24932811  0.29561086     0.00100
C1909       C  0.67258374  0.22741401  0.29446633    -0.12100
C1910       C  0.65158983  0.22544147  0.31993976     0.02600
C1911       C  0.65051913  0.25056583  0.34064459    -0.11500
H1912       H  0.72152846  0.28479558  0.32481509     0.08200
H1913       H  0.66953207  0.21155351  0.27475991     0.05700
H1914       H  0.62976117  0.25266298  0.35559522     0.05500
C1915       C  0.84246584  0.17871242  0.27456165     0.02600
C1916       C  0.84848777  0.16203591  0.24726136    -0.13600
C1917       C  0.82778040  0.16208352  0.22169192     0.00100
C1918       C  0.80020880  0.18067127  0.22370293    -0.12100
C1919       C  0.79742106  0.20344334  0.24833885     0.02600
C1920       C  0.81945814  0.20262448  0.27359310    -0.15100
H1921       H  0.86977092  0.14782076  0.24670737     0.08200
H1922       H  0.78277427  0.17950826  0.20514969     0.05700
H1923       H  0.81858178  0.21991302  0.29231372     0.05500
C1924       C  0.52911763  0.49861380  0.27153275     0.01700
C1925       C  0.52805560  0.47358391  0.24858773     0.01700
C1926       C  0.50567343  0.47566289  0.22328131     0.01700
C1927       C  0.98206865  0.50023972  0.22346887     0.01700
C1928       C  0.98198647  0.02347052  0.24815387     0.01700
C1929       C  0.50566971  0.02279178  0.27180456     0.01700
C1930       C  0.52946633  0.09936302  0.31188421     0.02600
C1931       C  0.50198193  0.10493650  0.32912714    -0.13600
C1932       C  0.98012016  0.08045071  0.33619269     0.00100
C1933       C  0.98498715  0.05098979  0.32119944    -0.12100
C1934       C  0.50690763  0.04907557  0.29553146     0.02600
C1935       C  0.52898618  0.07393288  0.29103554    -0.11500
H1936       H  0.49954444  0.12844315  0.33906888     0.08200
H1937       H  0.96986008  0.03108350  0.32702228     0.05700
H1938       H  0.54556596  0.07385130  0.27156500     0.05500
C1939       C  0.60111466  0.02494278  0.31905653     0.02600
C1940       C  0.57930942  0.02269764  0.29428585    -0.13600
C1941       C  0.55476389  0.49993612  0.29567307     0.00100
C1942       C  0.55344196  0.48004190  0.32229852    -0.12100
C1943       C  0.58015964  0.47722475  0.34132904     0.02600
C1944       C  0.60460776  0.49892892  0.33830097    -0.11500
H1945       H  0.58095453  0.03924125  0.27493246     0.08200
H1946       H  0.53287514  0.46568773  0.32737662     0.05700
H1947       H  0.62512792  0.49746242  0.35351797     0.05500
C1948       C  0.56067691  0.39422410  0.27925428     0.02600
C1949       C  0.54407226  0.42309221  0.27806408    -0.13600
C1950       C  0.54792266  0.44374587  0.25206589     0.00100
C1951       C  0.56852977  0.43347112  0.22786687    -0.12100
C1952       C  0.57623132  0.40096845  0.22490214     0.02600
C1953       C  0.57083571  0.38087942  0.25073596    -0.11500
H1954       H  0.52764912  0.42820721  0.29681543     0.08200
H1955       H  0.57703812  0.45011387  0.21043889     0.05700
H1956       H  0.57875487  0.35639026  0.25024312     0.05500
C1957       C  0.92493314  0.08794489  0.22237381     0.02600
C1958       C  0.95372532  0.07165307  0.22568339    -0.13600
C1959       C  0.95622908  0.04802629  0.24953276     0.00100
C1960       C  0.93313510  0.04723872  0.27410750    -0.12100
C1961       C  0.90882207  0.06981304  0.27456048     0.02600
C1962       C  0.90299367  0.08629209  0.24717868    -0.11500
H1963       H  0.97249682  0.07507510  0.20859085     0.08200
H1964       H  0.93386610  0.02953742  0.29248175     0.05700
H1965       H  0.88083894  0.09908352  0.24611282     0.05500
C1966       C  0.92374262  0.02431467  0.15841466     0.02600
C1967       C  0.90346199  0.49786144  0.15997880    -0.13600
C1968       C  0.90882358  0.47215196  0.17982084     0.00100
C1969       C  0.93178121  0.47540177  0.20316762    -0.12100
C1970       C  0.95515843  0.49947560  0.20022055     0.02600
C1971       C  0.95190160  0.02326781  0.17613733    -0.11500
H1972       H  0.88536304  0.49610623  0.14238635     0.08200
H1973       H  0.93228812  0.45860831  0.22242043     0.05700
H1974       H  0.96982493  0.04114825  0.17223660     0.05500
C1975       C  0.98070843  0.40915711  0.16787027     0.02600
C1976       C  0.50621511  0.40926314  0.14673312    -0.13600
C1977       C  0.53234212  0.42923531  0.14978010     0.00100
C1978       C  0.53062911  0.45334590  0.17278787    -0.12100
C1979       C  0.50647839  0.45196478  0.19662771     0.02600
C1980       C  0.98301373  0.42772450  0.19502627    -0.11500
H1981       H  0.50717560  0.39054353  0.13041550     0.08200
H1982       H  0.54901785  0.47128936  0.17375222     0.05700
H1983       H  0.96630800  0.42388505  0.21395263     0.05500
O1984       O  0.62340423  0.07707305  0.32263030    -0.80700
O1985       O  0.62675603  0.17393486  0.32244983    -0.80700
O1986       O  0.55857798  0.09808047  0.35833774    -0.80700
O1987       O  0.69189488  0.15195263  0.35728694    -0.80700
O1988       O  0.57969231  0.12592513  0.31904750    -0.80800
O1989       O  0.67009184  0.12446815  0.31851636    -0.80700
O1990       O  0.64958846  0.19352450  0.36443394    -0.80700
O1991       O  0.60096140  0.05612449  0.36439522    -0.80700
C1992       C  0.60797303  0.05482228  0.33520166     1.09000
C1993       C  0.64285321  0.19549671  0.33532540     1.08900
C1994       C  0.55841323  0.10721048  0.32952427     1.09000
C1995       C  0.69157801  0.14306231  0.32836153     1.08900
O1996       O  0.69549488  0.10006905  0.37651194    -0.80700
O1997       O  0.55462677  0.15015281  0.37740174    -0.80800
O1998       O  0.62412180  0.08172461  0.42366621    -0.80700
O1999       O  0.62622347  0.16880060  0.42352038    -0.80700
O2000       O  0.59823954  0.19108303  0.38503543    -0.80700
O2001       O  0.65196838  0.05902975  0.38523328    -0.80700
O2002       O  0.67657871  0.12215618  0.41931610    -0.80700
O2003       O  0.57397052  0.12746322  0.41963350    -0.80700
Co2004     Co  0.65687463  0.09294022  0.35091996     1.51500
Co2005     Co  0.59325030  0.15740234  0.35113854     1.51700
Co2006     Co  0.59243434  0.09394527  0.39143986     1.51600
Co2007     Co  0.65805195  0.15592655  0.39114815     1.51500
O2008       O  0.62511486  0.12512411  0.37117452    -1.42600
C2009       C  0.69790659  0.10573172  0.40569645     1.08900
C2010       C  0.55221374  0.14340225  0.40642281     1.09000
C2011       C  0.64299912  0.06013451  0.41430207     1.08900
C2012       C  0.60730421  0.19031296  0.41393358     1.08900
O2013       O  0.87898004  0.05577026  0.15031928    -0.80700
O2014       O  0.89205469  0.19038473  0.09764839    -0.80700
O2015       O  0.92470894  0.12073408  0.07638786    -0.80700
O2016       O  0.92713197  0.11664029  0.17156149    -0.80700
O2017       O  0.88544296  0.14923209  0.05664492    -0.80800
O2018       O  0.88207485  0.09778070  0.19085361    -0.80700
O2019       O  0.93272180  0.16725409  0.12152206    -0.80700
O2020       O  0.92197381  0.07217771  0.12516177    -0.80700
C2021       C  0.90852769  0.05280694  0.14415164     1.09000
C2022       C  0.92128630  0.18996830  0.10486626     1.08900
C2023       C  0.91397389  0.13904170  0.05508400     1.09000
C2024       C  0.91191228  0.10120121  0.19281352     1.08900
O2025       O  0.82618338  0.13145533  0.17231932    -0.80700
O2026       O  0.82336434  0.12943257  0.07956147    -0.80800
O2027       O  0.85978474  0.05619241  0.09908328    -0.80700
O2028       O  0.87804699  0.19430284  0.15060883    -0.80700
O2029       O  0.83223110  0.18078721  0.12992455    -0.80700
O2030       O  0.82029397  0.08042254  0.12359852    -0.80700
O2031       O  0.87124342  0.15153735  0.19058065    -0.80700
O2032       O  0.86111719  0.09942577  0.05799817    -0.80700
Co2033     Co  0.85202538  0.09471897  0.15588751     1.51500
Co2034     Co  0.85768569  0.15908979  0.09417594     1.51700
Co2035     Co  0.89229764  0.09034281  0.09265576     1.51600
Co2036     Co  0.90178549  0.15371669  0.15514345     1.51500
O2037       O  0.87591018  0.12455498  0.12442709    -1.42600
C2038       C  0.84128557  0.14802165  0.19266062     1.08900
C2039       C  0.83286166  0.11052841  0.05771291     1.09000
C2040       C  0.83063593  0.05713082  0.10712003     1.08900
C2041       C  0.84864198  0.19956776  0.14757855     1.08900
O2042       O  0.69745124  0.34920938  0.12336347    -0.80700
O2043       O  0.55426179  0.32422810  0.12999050    -0.80700
O2044       O  0.65148974  0.36508540  0.17977585    -0.80700
O2045       O  0.60590680  0.35957129  0.05183592    -0.80700
O2046       O  0.61578724  0.32579172  0.16996272    -0.80800
O2047       O  0.62008750  0.31963343  0.08137720    -0.80700
O2048       O  0.55917962  0.36207134  0.09267766    -0.80700
O2049       O  0.68217661  0.37510164  0.16739690    -0.80700
C2050       C  0.70155503  0.35636045  0.15261504     1.09000
C2051       C  0.54396578  0.33857765  0.10510585     1.08900
C2052       C  0.63896201  0.33738822  0.18581430     1.09000
C2053       C  0.60834145  0.32976998  0.05602296     1.08900
O2054       O  0.66116981  0.37434785  0.05951654    -0.80700
O2055       O  0.57874430  0.37039711  0.17669099    -0.80800
O2056       O  0.67869737  0.42066432  0.11836447    -0.80700
O2057       O  0.57933351  0.42484847  0.11531592    -0.80700
O2058       O  0.56493282  0.38518727  0.14673154    -0.80700
O2059       O  0.69464926  0.37438213  0.09874073    -0.80700
O2060       O  0.63251496  0.41829255  0.07060708    -0.80700
O2061       O  0.61874329  0.40281339  0.18897896    -0.80700
Co2062     Co  0.65667497  0.34494487  0.09750034     1.51500
Co2063     Co  0.59300460  0.34843841  0.13457348     1.51700
Co2064     Co  0.64699024  0.40453456  0.15104623     1.51600
Co2065     Co  0.59686074  0.39177943  0.08555766     1.51500
O2066       O  0.62674262  0.37450292  0.12015685    -1.42600
C2067       C  0.65266591  0.40333557  0.05354599     1.08900
C2068       C  0.59271960  0.38964750  0.19619327     1.09000
C2069       C  0.69850320  0.40451867  0.10246647     1.08900
C2070       C  0.56170163  0.41398964  0.13735225     1.08900
O2071       O  0.67966891  0.31039510  0.88636766    -0.80700
O2072       O  0.65080607  0.44395504  0.87343090    -0.80700
O2073       O  0.62520012  0.33319839  0.81148038    -0.80700
O2074       O  0.63623775  0.40534240  0.93647806    -0.80700
O2075       O  0.65494786  0.37651419  0.80942011    -0.80800
O2076       O  0.67282773  0.36656026  0.92639347    -0.80700
O2077       O  0.62968911  0.43262414  0.92112616    -0.80700
O2078       O  0.64163133  0.31220114  0.84926944    -0.80700
C2079       C  0.66728249  0.30012041  0.86065579     1.09000
C2080       C  0.64703513  0.45017297  0.90259243     1.08900
C2081       C  0.64666991  0.34977924  0.79858742     1.09000
C2082       C  0.66299654  0.39045171  0.94229961     1.08900
O2083       O  0.62752964  0.33107518  0.93051273    -0.80700
O2084       O  0.60294157  0.40531423  0.81557690    -0.80800
O2085       O  0.57785466  0.31161921  0.87342519    -0.80700
O2086       O  0.58722953  0.44037712  0.88267903    -0.80700
O2087       O  0.60571367  0.42977114  0.83407169    -0.80700
O2088       O  0.62012777  0.30996418  0.90423893    -0.80700
O2089       O  0.59204204  0.36894986  0.94264287    -0.80700
O2090       O  0.57403720  0.36022548  0.82167675    -0.80700
Co2091     Co  0.65097368  0.34578988  0.88994090     1.51500
Co2092     Co  0.64407376  0.40548673  0.84544133     1.51700
Co2093     Co  0.60442759  0.34311319  0.85162523     1.51600
Co2094     Co  0.59522322  0.40135178  0.90911844     1.51500
O2095       O  0.62145242  0.37778406  0.87721445    -1.42600
C2096       C  0.60551876  0.34294884  0.94862257     1.08900
C2097       C  0.57956252  0.38606400  0.80735217     1.09000
C2098       C  0.59322026  0.29832587  0.89523447     1.08900
C2099       C  0.58976005  0.44695696  0.85357117     1.08900
O2100       O  0.87049983  0.17439551  0.82421876    -0.80700
O2101       O  0.87649764  0.16809646  0.92789676    -0.80700
O2102       O  0.80481068  0.12687637  0.84608657    -0.80700
O2103       O  0.93534407  0.13127829  0.90148559    -0.80700
O2104       O  0.81681666  0.17240509  0.86987519    -0.80800
O2105       O  0.92069985  0.17443931  0.87432522    -0.80700
O2106       O  0.90648869  0.12454525  0.93606462    -0.80700
O2107       O  0.84764250  0.13175109  0.80294029    -0.80700
C2108       C  0.85293445  0.16179769  0.80318725     1.09000
C2109       C  0.89654088  0.15201910  0.94479461     1.08900
C2110       C  0.79907394  0.15606474  0.85112438     1.09000
C2111       C  0.93979577  0.16029036  0.89337131     1.08900
O2112       O  0.94353496  0.11946482  0.84552048    -0.80700
O2113       O  0.81318137  0.11416325  0.90134242    -0.80800
O2114       O  0.87902346  0.07339678  0.82350434    -0.80700
O2115       O  0.87055821  0.08022576  0.92986984    -0.80700
O2116       O  0.84028947  0.12394760  0.93672409    -0.80700
O2117       O  0.90145367  0.11653655  0.80266021    -0.80700
O2118       O  0.93177591  0.07444779  0.87089673    -0.80700
O2119       O  0.82863153  0.07162257  0.87362899    -0.80700
Co2120     Co  0.90611276  0.14640580  0.83862365     1.51500
Co2121     Co  0.84782922  0.14575743  0.89567496     1.51700
Co2122     Co  0.84286769  0.10073388  0.83831810     1.51600
Co2123     Co  0.89967101  0.10102507  0.89616136     1.51500
O2124       O  0.87419825  0.12343464  0.86585929    -1.42600
C2125       C  0.94987094  0.09070872  0.85200920     1.08900
C2126       C  0.80952585  0.08501672  0.89336757     1.09000
C2127       C  0.89695927  0.08641865  0.80284234     1.08900
C2128       C  0.85038449  0.09687134  0.94648687     1.08900
O2129       O  0.83429400  0.37236251  0.68036123    -0.80700
O2130       O  0.93128034  0.37862521  0.67129169    -0.80700
O2131       O  0.85110106  0.30684086  0.64462032    -0.80700
O2132       O  0.90572178  0.44016635  0.63601472    -0.80700
O2133       O  0.88184185  0.32864393  0.68135327    -0.80800
O2134       O  0.88239155  0.42067043  0.67904222    -0.80700
O2135       O  0.94689903  0.39896541  0.62599833    -0.80700
O2136       O  0.80899037  0.34948176  0.64144045    -0.80700
C2137       C  0.81018857  0.35787705  0.67038952     1.09000
C2138       C  0.95121152  0.39488593  0.65536340     1.08900
C2139       C  0.86191060  0.30714171  0.67277099     1.09000
C2140       C  0.89973377  0.44162121  0.66557842     1.08900
O2141       O  0.85202565  0.44441198  0.62479357    -0.80700
O2142       O  0.90225583  0.30384777  0.62360784    -0.80800
O2143       O  0.83014062  0.37213419  0.57923034    -0.80700
O2144       O  0.91718899  0.37351471  0.57082684    -0.80700
O2145       O  0.94177547  0.34683031  0.60922112    -0.80700
O2146       O  0.81155951  0.40036741  0.61969532    -0.80700
O2147       O  0.86905146  0.42691884  0.57921007    -0.80700
O2148       O  0.87772875  0.31972185  0.58116073    -0.80700
Co2149     Co  0.84785086  0.40582354  0.65060389     1.51500
Co2150     Co  0.91145093  0.34311295  0.64648505     1.51700
Co2151     Co  0.84510204  0.34017413  0.61107427     1.51600
Co2152     Co  0.90626740  0.40646853  0.60321677     1.51500
O2153       O  0.87770571  0.37380890  0.62765168    -1.42600
C2154       C  0.85358959  0.44777844  0.59534972     1.08900
C2155       C  0.89620961  0.29988261  0.59484081     1.09000
C2156       C  0.81044478  0.39235098  0.59043055     1.08900
C2157       C  0.93962792  0.35512500  0.58000913     1.08900
C2158       C  0.77433413  0.50101490  0.52334391     0.01700
C2159       C  0.75286762  0.47446973  0.52150995     0.01700
C2160       C  0.72841867  0.47453618  0.49747808     0.01700
C2161       C  0.72558229  0.50106086  0.97586118     0.01700
C2162       C  0.74910969  0.02604793  0.97681572     0.01700
C2163       C  0.77254745  0.02694650  0.50129500     0.01700
C2164       C  0.81244202  0.02760196  0.60018274     0.02600
C2165       C  0.79224892  0.02587756  0.57440029    -0.13600
C2166       C  0.79721284  0.50306416  0.55031484     0.00100
C2167       C  0.82281638  0.48120564  0.55382137    -0.12100
C2168       C  0.83607236  0.47684002  0.58395374     0.02600
C2169       C  0.82859105  0.50001169  0.60719522    -0.11500
H2170       H  0.77160593  0.04093573  0.57427045     0.08200
H2171       H  0.82997711  0.46604656  0.53452834     0.05700
H2172       H  0.83764846  0.49846283  0.63082744     0.05500
C2173       C  0.81504860  0.10376510  0.52815748     0.02600
C2174       C  0.83246267  0.10999884  0.00060421    -0.13600
C2175       C  0.83599994  0.08679272  0.97690774     0.00100
C2176       C  0.82003751  0.05780677  0.98049215    -0.12100
C2177       C  0.79543732  0.05479288  0.00313499     0.02600
C2178       C  0.79273807  0.07889830  0.52666968    -0.11500
H2179       H  0.84621502  0.13174984  0.99925145     0.08200
H2180       H  0.82502759  0.03879239  0.96418456     0.05700
H2181       H  0.77370386  0.07886018  0.54366497     0.05500
C2182       C  0.64962333  0.03163319  0.93374541     0.02600
C2183       C  0.63977773  0.50433455  0.91931921    -0.13600
C2184       C  0.66038201  0.47894352  0.91633371     0.00100
C2185       C  0.69057032  0.48029153  0.93050762    -0.12100
C2186       C  0.69708176  0.50376392  0.95354643     0.02600
C2187       C  0.67501153  0.02959686  0.95533284    -0.11500
H2188       H  0.61738445  0.50418757  0.90679477     0.08200
H2189       H  0.70803326  0.46273906  0.92430163     0.05700
H2190       H  0.67656115  0.04728877  0.97354087     0.05500
C2191       C  0.72723187  0.09332498  0.92045282     0.02600
C2192       C  0.72831957  0.07491676  0.94787575    -0.13600
C2193       C  0.75074411  0.04980982  0.95024091     0.00100
C2194       C  0.77522786  0.04756633  0.92697403    -0.12100
C2195       C  0.77880453  0.07191612  0.90451815     0.02600
C2196       C  0.75370119  0.09322468  0.90089441    -0.11500
H2197       H  0.71173414  0.07995122  0.96655664     0.08200
H2198       H  0.79237371  0.02847962  0.92769182     0.05700
H2199       H  0.75561945  0.11214842  0.88397038     0.05500
C2200       C  0.72808818  0.41757180  0.58869579     0.02600
C2201       C  0.75403922  0.39730135  0.59012728    -0.13600
C2202       C  0.78158723  0.40317860  0.57331351     0.00100
C2203       C  0.78035326  0.42582604  0.54844286    -0.12100
C2204       C  0.75444181  0.44794162  0.54655119     0.02600
C2205       C  0.73031673  0.44528241  0.57008466    -0.11500
H2206       H  0.75364649  0.37734039  0.60639357     0.08200
H2207       H  0.79949030  0.42647150  0.53148807     0.05700
H2208       H  0.71272338  0.46365177  0.57296969     0.05500
C2209       C  0.66445268  0.41652799  0.52380386     0.02600
C2210       C  0.66170659  0.39668863  0.99805124    -0.13600
C2211       C  0.67945357  0.40141868  0.97098750     0.00100
C2212       C  0.70403634  0.42441259  0.97177043    -0.12100
C2213       C  0.70455210  0.44761627  0.49642123     0.02600
C2214       C  0.68176141  0.44472825  0.52081959    -0.11500
H2215       H  0.64343097  0.37876839  0.99843687     0.08200
H2216       H  0.72153835  0.42480933  0.95306539     0.05700
H2217       H  0.67863196  0.46328266  0.53805597     0.05500
C2218       C  0.52362936  0.24549898  0.97491515     0.01700
C2219       C  0.99850808  0.22255879  0.97420271     0.01700
C2220       C  0.97493156  0.22193598  0.99847060     0.01700
C2221       C  0.97422791  0.24693661  0.52113029     0.01700
C2222       C  0.99772323  0.27136100  0.52089612     0.01700
C2223       C  0.52384874  0.26979761  0.99880605     0.01700
C2224       C  0.59349673  0.32387738  0.97525472     0.02600
C2225       C  0.56193356  0.31236539  0.97684491    -0.13600
C2226       C  0.55256126  0.29168015  0.00169081     0.00100
C2227       C  0.57254424  0.29077001  0.52852086    -0.12100
C2228       C  0.60074874  0.30875300  0.52917088     0.02600
C2229       C  0.61351324  0.31890300  0.50059680    -0.11500
H2230       H  0.54557290  0.31808548  0.95815229     0.08200
H2231       H  0.56703332  0.27599173  0.54850572     0.05700
H2232       H  0.63739574  0.32827419  0.50002296     0.05500
C2233       C  0.58289294  0.26929931  0.91154167     0.02600
C2234       C  0.55316600  0.26552643  0.92634934    -0.13600
C2235       C  0.55041206  0.24327173  0.95133559     0.00100
C2236       C  0.57442080  0.21976455  0.95440431    -0.12100
C2237       C  0.59981539  0.21886410  0.93293287     0.02600
C2238       C  0.60664021  0.24679495  0.91707059    -0.11500
H2239       H  0.53426945  0.28236806  0.92183725     0.08200
H2240       H  0.57420566  0.20295659  0.97364201     0.05700
H2241       H  0.62970946  0.24899547  0.90596981     0.05500
C2242       C  0.96837956  0.34803595  0.56051467     0.02600
C2243       C  0.99593070  0.35459929  0.57701055    -0.13600
C2244       C  0.51538751  0.32971688  0.58720909     0.00100
C2245       C  0.51315470  0.30050253  0.57123263    -0.12100
C2246       C  0.99433238  0.29859399  0.54377564     0.02600
C2247       C  0.97026744  0.32205840  0.53970091    -0.11500
H2248       H  0.99926591  0.37852383  0.58452832     0.08200
H2249       H  0.52767215  0.28069524  0.57855141     0.05700
H2250       H  0.95339020  0.32032681  0.52068587     0.05500
C2251       C  0.91169629  0.27073279  0.58150406     0.02600
C2252       C  0.92640900  0.26780917  0.55187992    -0.13600
C2253       C  0.95160527  0.24545416  0.54814583     0.00100
C2254       C  0.95790945  0.22334189  0.57242894    -0.12100
C2255       C  0.93714258  0.22051533  0.59772829     0.02600
C2256       C  0.91759198  0.24665593  0.60367759    -0.11500
H2257       H  0.92019737  0.28404681  0.53320476     0.08200
H2258       H  0.97863490  0.20832027  0.57170497     0.05700
H2259       H  0.90277668  0.24581323  0.62417997     0.05500
C2260       C  0.52229311  0.15333739  0.92170824     0.02600
C2261       C  0.52097195  0.17375638  0.94744581    -0.13600
C2262       C  0.49785661  0.19814987  0.94845107     0.00100
C2263       C  0.97368133  0.19892634  0.92508469    -0.12100
C2264       C  0.97037650  0.17285349  0.90478316     0.02600
C2265       C  0.49546267  0.15078823  0.90317562    -0.11500
H2266       H  0.53802180  0.17081105  0.96594641     0.08200
H2267       H  0.95645076  0.21793475  0.92447351     0.05700
H2268       H  0.49374399  0.13018569  0.88827672     0.05500
C2269       C  0.91067242  0.16287371  0.97465912     0.02600
C2270       C  0.92708120  0.19171134  0.97763953    -0.13600
C2271       C  0.95145577  0.19466857  0.00031335     0.00100
C2272       C  0.95370905  0.17073132  0.52393079    -0.12100
C2273       C  0.93119291  0.14621144  0.52550336     0.02600
C2274       C  0.91374852  0.13994995  0.99849661    -0.11500
H2275       H  0.92258076  0.21055357  0.96098945     0.08200
H2276       H  0.97238699  0.17074084  0.54106137     0.05700
H2277       H  0.89981150  0.11829071  0.99758249     0.05500
C2278       C  0.77182519  0.22820687  0.74766128     0.01700
C2279       C  0.74700584  0.22708081  0.77054311     0.01700
C2280       C  0.72243741  0.25015352  0.76992772     0.01700
C2281       C  0.72193978  0.27434792  0.74608335     0.01700
C2282       C  0.74882651  0.27749640  0.72516486     0.01700
C2283       C  0.77314153  0.25353096  0.72508055     0.01700
C2284       C  0.77006757  0.16703651  0.83404512     0.02600
C2285       C  0.74786149  0.14317740  0.82625801    -0.13600
C2286       C  0.72048606  0.15020240  0.80984405     0.00100
C2287       C  0.72190743  0.17601019  0.78925581    -0.12100
C2288       C  0.74513556  0.19986990  0.79357399     0.02600
C2289       C  0.76645238  0.19688888  0.81940298    -0.11500
H2290       H  0.74947833  0.11940888  0.83570047     0.08200
H2291       H  0.70525383  0.17713584  0.77007989     0.05700
H2292       H  0.78175334  0.21632418  0.82597844     0.05500
C2293       C  0.65019060  0.32303002  0.71575394     0.02600
C2294       C  0.64468241  0.34195245  0.74210033    -0.13600
C2295       C  0.66110560  0.33755474  0.76971622     0.00100
C2296       C  0.68785439  0.31793334  0.76988791    -0.12100
C2297       C  0.69400478  0.29715380  0.74445296     0.02600
C2298       C  0.67285068  0.29821197  0.71817903    -0.11500
H2299       H  0.62880085  0.36184386  0.74078336     0.08200
H2300       H  0.70345696  0.31897501  0.78985139     0.05700
H2301       H  0.67499450  0.28115331  0.69926268     0.05500
C2302       C  0.85378932  0.27819781  0.69160732     0.02600
C2303       C  0.86097144  0.25008569  0.67581288    -0.13600
C2304       C  0.83722703  0.22827944  0.66604257     0.00100
C2305       C  0.80618174  0.23330964  0.67795302    -0.12100
C2306       C  0.80140261  0.25561362  0.70300760     0.02600
C2307       C  0.82608273  0.27743055  0.70972493    -0.11500
H2308       H  0.88547196  0.24711321  0.66933345     0.08200
H2309       H  0.78711267  0.21782860  0.67068157     0.05700
H2310       H  0.82554222  0.29185382  0.73064440     0.05500
C2311       C  0.72928156  0.34502317  0.66907873     0.02600
C2312       C  0.75415070  0.36598325  0.67407887    -0.13600
C2313       C  0.78102235  0.35506893  0.68951021     0.00100
C2314       C  0.77709469  0.32922701  0.71020807    -0.12100
C2315       C  0.75250160  0.30691444  0.70507495     0.02600
C2316       C  0.73083793  0.31395936  0.68100607    -0.11500
H2317       H  0.75484359  0.38845631  0.66145928     0.08200
H2318       H  0.79261087  0.32743126  0.73012217     0.05700
H2319       H  0.71440471  0.29630381  0.67274317     0.05500
C2320       C  0.67615480  0.27103283  0.84428811     0.02600
C2321       C  0.70140231  0.26894974  0.82265795    -0.13600
C2322       C  0.69805295  0.24933803  0.79561316     0.00100
C2323       C  0.67259067  0.22742026  0.79447191    -0.12100
C2324       C  0.65160110  0.22544342  0.81994903     0.02600
C2325       C  0.65053025  0.25056642  0.84065552    -0.11500
H2326       H  0.72153091  0.28480861  0.82481512     0.08200
H2327       H  0.66953795  0.21156025  0.77476537     0.05700
H2328       H  0.62977525  0.25265927  0.85561073     0.05500
C2329       C  0.84247279  0.17872381  0.77456205     0.02600
C2330       C  0.84849675  0.16205013  0.74726020    -0.13600
C2331       C  0.82778700  0.16209376  0.72169201     0.00100
C2332       C  0.80021421  0.18068018  0.72370411    -0.12100
C2333       C  0.79742629  0.20345337  0.74833935     0.02600
C2334       C  0.81946346  0.20263468  0.77359382    -0.15100
H2335       H  0.86978223  0.14783886  0.74670532     0.08200
H2336       H  0.78277846  0.17951502  0.70515219     0.05700
H2337       H  0.81858621  0.21992287  0.79231473     0.05500
C2338       C  0.52912390  0.49861878  0.77152446     0.01700
C2339       C  0.52806027  0.47358856  0.74858075     0.01700
C2340       C  0.50568114  0.47567099  0.72327202     0.01700
C2341       C  0.98208250  0.50024992  0.72345368     0.01700
C2342       C  0.98198991  0.02348331  0.74813921     0.01700
C2343       C  0.50568389  0.02279255  0.77180595     0.01700
C2344       C  0.52947107  0.09936051  0.81189769     0.02600
C2345       C  0.50198700  0.10492531  0.82914452    -0.13600
C2346       C  0.98012294  0.08045588  0.83618830     0.00100
C2347       C  0.98498946  0.05099881  0.82118730    -0.12100
C2348       C  0.50691960  0.04907216  0.79553740     0.02600
C2349       C  0.52899455  0.07393351  0.79104511    -0.11500
H2350       H  0.49954584  0.12842977  0.83909063     0.08200
H2351       H  0.96986331  0.03109084  0.82700658     0.05700
H2352       H  0.54557504  0.07385682  0.77157513     0.05500
C2353       C  0.60112795  0.02494522  0.81905416     0.02600
C2354       C  0.57932219  0.02269947  0.79428406    -0.13600
C2355       C  0.55476442  0.49993522  0.79567111     0.00100
C2356       C  0.55343164  0.48003949  0.82229519    -0.12100
C2357       C  0.58014076  0.47722153  0.84133739     0.02600
C2358       C  0.60459045  0.49892443  0.83831935    -0.11500
H2359       H  0.58096407  0.03924500  0.77493195     0.08200
H2360       H  0.53286190  0.46568684  0.82736540     0.05700
H2361       H  0.62510491  0.49745636  0.85354352     0.05500
C2362       C  0.56067634  0.39422397  0.77924697     0.02600
C2363       C  0.54407054  0.42309198  0.77805582    -0.13600
C2364       C  0.54792502  0.44374874  0.75206002     0.00100
C2365       C  0.56853520  0.43347670  0.72786285    -0.12100
C2366       C  0.57623878  0.40097481  0.72489694     0.02600
C2367       C  0.57084232  0.38088327  0.75072902    -0.11500
H2368       H  0.52764421  0.42820491  0.79680494     0.08200
H2369       H  0.57704229  0.45012087  0.71043540     0.05700
H2370       H  0.57876582  0.35639544  0.75023528     0.05500
C2371       C  0.92493777  0.08795629  0.72236162     0.02600
C2372       C  0.95372824  0.07166210  0.72566804    -0.13600
C2373       C  0.95623245  0.04803729  0.74951839     0.00100
C2374       C  0.93313981  0.04725070  0.77409433    -0.12100
C2375       C  0.90883040  0.06982873  0.77455047     0.02600
C2376       C  0.90300259  0.08631058  0.74717028    -0.11500
H2377       H  0.97249743  0.07508031  0.70857218     0.08200
H2378       H  0.93386982  0.02954818  0.79246740     0.05700
H2379       H  0.88084911  0.09910396  0.74610554     0.05500
C2380       C  0.92373182  0.02431698  0.65841015     0.02600
C2381       C  0.90347520  0.49786946  0.65996300    -0.13600
C2382       C  0.90883636  0.47216163  0.67980704     0.00100
C2383       C  0.93179370  0.47541307  0.70315396    -0.12100
C2384       C  0.95517068  0.49948715  0.70020648     0.02600
C2385       C  0.95189554  0.02327139  0.67612550    -0.11500
H2386       H  0.88537555  0.49611312  0.64237025     0.08200
H2387       H  0.93230000  0.45862113  0.72240794     0.05700
H2388       H  0.96981794  0.04115161  0.67221913     0.05500
C2389       C  0.98071346  0.40915794  0.66786508     0.02600
C2390       C  0.50622079  0.40925379  0.64674111    -0.13600
C2391       C  0.53234577  0.42923021  0.64977832     0.00100
C2392       C  0.53063356  0.45334653  0.67278043    -0.12100
C2393       C  0.50648418  0.45196985  0.69662196     0.02600
C2394       C  0.98301967  0.42772968  0.69501826    -0.11500
H2395       H  0.50718113  0.39052488  0.63042831     0.08200
H2396       H  0.54902271  0.47128977  0.67374060     0.05700
H2397       H  0.96631446  0.42389301  0.71394558     0.05500
O2398       O  0.62340907  0.07707784  0.82263118    -0.80700
O2399       O  0.62676462  0.17393729  0.82245725    -0.80700
O2400       O  0.55858697  0.09808224  0.85834746    -0.80700
O2401       O  0.69190756  0.15194994  0.85728670    -0.80700
O2402       O  0.57969586  0.12592926  0.81905605    -0.80800
O2403       O  0.67009969  0.12446988  0.81851576    -0.80700
O2404       O  0.64960309  0.19352240  0.86444052    -0.80700
O2405       O  0.60096997  0.05612425  0.86439549    -0.80700
C2406       C  0.60798111  0.05482452  0.83520157     1.09000
C2407       C  0.64286509  0.19549706  0.83533269     1.08900
C2408       C  0.55841860  0.10721322  0.82953467     1.09000
C2409       C  0.69158720  0.14306323  0.82836015     1.08900
O2410       O  0.69550532  0.10006455  0.87650632    -0.80700
O2411       O  0.55463755  0.15015468  0.87741463    -0.80800
O2412       O  0.62413577  0.08172128  0.92366754    -0.80700
O2413       O  0.62624165  0.16879725  0.92352747    -0.80700
O2414       O  0.59825483  0.19108206  0.88504572    -0.80700
O2415       O  0.65197763  0.05902712  0.88523106    -0.80700
O2416       O  0.67659540  0.12214785  0.91931498    -0.80700
O2417       O  0.57398520  0.12745908  0.91964169    -0.80700
Co2418     Co  0.65688268  0.09294004  0.85091861     1.51500
Co2419     Co  0.59325998  0.15740404  0.85114784     1.51700
Co2420     Co  0.59244636  0.09394365  0.89144451     1.51600
Co2421     Co  0.65806724  0.15592237  0.89115148     1.51500
O2422       O  0.62512598  0.12512342  0.87117855    -1.42600
C2423       C  0.69792009  0.10572225  0.90569129     1.08900
C2424       C  0.55222567  0.14339712  0.90643435     1.09000
C2425       C  0.64301102  0.06013086  0.91430086     1.08900
C2426       C  0.60732097  0.19031003  0.91394323     1.08900
O2427       O  0.87896972  0.05577135  0.65031041    -0.80700
O2428       O  0.89204721  0.19038856  0.59764324    -0.80700
O2429       O  0.92470064  0.12073300  0.57638198    -0.80700
O2430       O  0.92712998  0.11664184  0.67154642    -0.80700
O2431       O  0.88543642  0.14923454  0.55664026    -0.80800
O2432       O  0.88207545  0.09778041  0.69084417    -0.80700
O2433       O  0.93271561  0.16725565  0.62151138    -0.80700
O2434       O  0.92196371  0.07217636  0.62515259    -0.80700
C2435       C  0.90851713  0.05280688  0.64414308     1.09000
C2436       C  0.92127960  0.18997120  0.60485844     1.08900
C2437       C  0.91396695  0.13904252  0.55507929     1.09000
C2438       C  0.91191295  0.10120402  0.69280077     1.08900
O2439       O  0.82618259  0.13146051  0.67232080    -0.80700
O2440       O  0.82335643  0.12943698  0.57955849    -0.80800
O2441       O  0.85977157  0.05619610  0.59907578    -0.80700
O2442       O  0.87804304  0.19430478  0.65060517    -0.80700
O2443       O  0.83222619  0.18079057  0.62992128    -0.80700
O2444       O  0.82028407  0.08042657  0.62359696    -0.80700
O2445       O  0.87124622  0.15153783  0.69057773    -0.80700
O2446       O  0.86110714  0.09943003  0.55799218    -0.80700
Co2447     Co  0.85201979  0.09472189  0.65588312     1.51500
Co2448     Co  0.85767897  0.15909312  0.59417152     1.51700
Co2449     Co  0.89228739  0.09034405  0.59264862     1.51600
Co2450     Co  0.90178238  0.15371829  0.65513519     1.51500
O2451       O  0.87590337  0.12455719  0.62442110    -1.42600
C2452       C  0.84128831  0.14802594  0.69266070     1.08900
C2453       C  0.83285203  0.11053352  0.55770883     1.09000
C2454       C  0.83062371  0.05713493  0.60711621     1.08900
C2455       C  0.84863775  0.19957080  0.64757484     1.08900
O2456       O  0.69745424  0.34921388  0.62335953    -0.80700
O2457       O  0.55427048  0.32422651  0.62999189    -0.80700
O2458       O  0.65149572  0.36510190  0.67977228    -0.80700
O2459       O  0.60590929  0.35956887  0.55182993    -0.80700
O2460       O  0.61579816  0.32580202  0.66996453    -0.80800
O2461       O  0.62009163  0.31963345  0.58137349    -0.80700
O2462       O  0.55918471  0.36206702  0.59267576    -0.80700
O2463       O  0.68218128  0.37511549  0.66738844    -0.80700
C2464       C  0.70155850  0.35637018  0.65260981     1.09000
C2465       C  0.54397211  0.33857421  0.60510703     1.08900
C2466       C  0.63897075  0.33740434  0.68581528     1.09000
C2467       C  0.60834507  0.32976801  0.55601863     1.08900
O2468       O  0.66117239  0.37434734  0.55951017    -0.80700
O2469       O  0.57875355  0.37039930  0.67668858    -0.80800
O2470       O  0.67870031  0.42066844  0.61834986    -0.80700
O2471       O  0.57933366  0.42484689  0.61530792    -0.80700
O2472       O  0.56493948  0.38518596  0.64672692    -0.80700
O2473       O  0.69465383  0.37438371  0.59873281    -0.80700
O2474       O  0.63251479  0.41829193  0.57059540    -0.80700
O2475       O  0.61874534  0.40282839  0.68896694    -0.80700
Co2476     Co  0.65667900  0.34494654  0.59749525     1.51500
Co2477     Co  0.59301264  0.34843917  0.63457079     1.51700
Co2478     Co  0.64699309  0.40454432  0.65103396     1.51600
Co2479     Co  0.59686254  0.39177764  0.58555040     1.51500
O2480       O  0.62674693  0.37450586  0.62014980    -1.42600
C2481       C  0.65266810  0.40333442  0.55353710     1.08900
C2482       C  0.59272618  0.38965613  0.69618675     1.09000
C2483       C  0.69850724  0.40452082  0.60245515     1.08900
C2484       C  0.56170473  0.41398728  0.63734635     1.08900
O2485       O  0.67927484  0.82057410  0.37391495    -0.80700
O2486       O  0.65197725  0.94304426  0.37383785    -0.80700
O2487       O  0.62428311  0.83461883  0.31011373    -0.80700
O2488       O  0.63620734  0.90388917  0.43699363    -0.80700
O2489       O  0.65665774  0.87610770  0.30899157    -0.80800
O2490       O  0.67748868  0.87058134  0.42621301    -0.80700
O2491       O  0.62907431  0.93153744  0.42066411    -0.80700
O2492       O  0.63624965  0.80985715  0.34584770    -0.80700
C2493       C  0.66472551  0.80368775  0.35384266     1.09000
C2494       C  0.64711694  0.94922132  0.40290748     1.08900
C2495       C  0.64692751  0.85013196  0.29775567     1.09000
C2496       C  0.66473628  0.89220048  0.44286285     1.08900
O2497       O  0.63246067  0.83527593  0.44120298    -0.80700
O2498       O  0.60420099  0.90463624  0.31508434    -0.80800
O2499       O  0.57848984  0.81409010  0.37727548    -0.80700
O2500       O  0.58867994  0.93948890  0.38206452    -0.80700
O2501       O  0.60744806  0.92954069  0.33345173    -0.80700
O2502       O  0.62314909  0.80625804  0.40385489    -0.80700
O2503       O  0.58857234  0.86417896  0.43804006    -0.80700
O2504       O  0.57293880  0.86116280  0.32261958    -0.80700
Co2505     Co  0.64924514  0.84618700  0.39930532     1.51500
Co2506     Co  0.64606663  0.90512183  0.34464826     1.51700
Co2507     Co  0.60405304  0.84355416  0.35105353     1.51600
Co2508     Co  0.59608974  0.89938080  0.40695653     1.51500
O2509       O  0.62384048  0.87655604  0.37550722    -1.42600
C2510       C  0.60500620  0.84271674  0.45110569     1.08900
C2511       C  0.57970232  0.88629628  0.30757572     1.09000
C2512       C  0.59475311  0.79813883  0.39691183     1.08900
C2513       C  0.59115410  0.94639648  0.35304654     1.08900
O2514       O  0.87068161  0.67468154  0.32429625    -0.80700
O2515       O  0.87659335  0.66811650  0.42804392    -0.80700
O2516       O  0.80495004  0.62711789  0.34608783    -0.80700
O2517       O  0.93541940  0.63140675  0.40154760    -0.80700
O2518       O  0.81691546  0.67260371  0.36997470    -0.80800
O2519       O  0.92082455  0.67462748  0.37445166    -0.80700
O2520       O  0.90657393  0.62453532  0.43611079    -0.80700
O2521       O  0.84780583  0.63207673  0.30296217    -0.80700
C2522       C  0.85313833  0.66211540  0.30322737     1.09000
C2523       C  0.89662076  0.65197978  0.44490908     1.08900
C2524       C  0.79920049  0.65629984  0.35116479     1.09000
C2525       C  0.93989146  0.66043445  0.39349004     1.08900
O2526       O  0.94369425  0.61968974  0.34558906    -0.80700
O2527       O  0.81328995  0.61424675  0.40131132    -0.80800
O2528       O  0.87918077  0.57368541  0.32346810    -0.80700
O2529       O  0.87060783  0.58029704  0.42983347    -0.80700
O2530       O  0.84033114  0.62400305  0.43675304    -0.80700
O2531       O  0.90162270  0.61684059  0.30268011    -0.80700
O2532       O  0.93185012  0.57460780  0.37080718    -0.80700
O2533       O  0.82880197  0.57178612  0.37352334    -0.80700
Co2534     Co  0.90626858  0.64665266  0.33869843     1.51500
Co2535     Co  0.84791677  0.64589281  0.39574494     1.51700
Co2536     Co  0.84301796  0.60099363  0.33828815     1.51600
Co2537     Co  0.89975619  0.60114718  0.39614961     1.51500
O2538       O  0.87431748  0.62364974  0.36588789    -1.42600
C2539       C  0.94996934  0.59088948  0.35195505     1.08900
C2540       C  0.80967891  0.58510618  0.39328634     1.09000
C2541       C  0.89711857  0.58672303  0.30282504     1.08900
C2542       C  0.85040953  0.59690005  0.44647209     1.08900
O2543       O  0.83462601  0.87253914  0.18036217    -0.80700
O2544       O  0.93159631  0.87872483  0.17106371    -0.80700
O2545       O  0.85124861  0.80690645  0.14481748    -0.80700
O2546       O  0.90605157  0.94008205  0.13558359    -0.80700
O2547       O  0.88212704  0.82877195  0.18141584    -0.80800
O2548       O  0.88281269  0.92080050  0.17876151    -0.80700
O2549       O  0.94712588  0.89880622  0.12563863    -0.80700
O2550       O  0.80919808  0.84957845  0.14155798    -0.80700
C2551       C  0.81047000  0.85807779  0.17047396     1.09000
C2552       C  0.95146677  0.89495711  0.15502614     1.08900
C2553       C  0.86216959  0.80724903  0.17292285     1.09000
C2554       C  0.90013291  0.94167758  0.16514721     1.08900
O2555       O  0.85234376  0.94432182  0.12453984    -0.80700
O2556       O  0.90238546  0.80375432  0.12381216    -0.80800
O2557       O  0.83021993  0.87200235  0.07924829    -0.80700
O2558       O  0.91717625  0.87321162  0.07067262    -0.80700
O2559       O  0.94189684  0.84665000  0.10907465    -0.80700
O2560       O  0.81180057  0.90039428  0.11968505    -0.80700
O2561       O  0.86922632  0.92672655  0.07894734    -0.80700
O2562       O  0.87784222  0.81944131  0.08131085    -0.80700
Co2563     Co  0.84817253  0.90587364  0.15048061     1.51500
Co2564     Co  0.91167991  0.84310755  0.14645013     1.51700
Co2565     Co  0.84524106  0.84010517  0.11116409     1.51600
Co2566     Co  0.90644687  0.90628374  0.10293438     1.51500
O2567       O  0.87791629  0.87375105  0.12756538    -1.42600
C2568       C  0.85387046  0.94765063  0.09509689     1.08900
C2569       C  0.89634481  0.79966050  0.09507343     1.09000
C2570       C  0.81059529  0.89230811  0.09044640     1.08900
C2571       C  0.93966489  0.85489870  0.07985346     1.08900
C2572       C  0.77462904  0.00125539  0.02350390     0.01700
C2573       C  0.75300405  0.97494281  0.02207639     0.01700
C2574       C  0.72824870  0.97533379  0.99850275     0.01700
C2575       C  0.72542990  0.00144226  0.47640851     0.01700
C2576       C  0.74916523  0.52581031  0.47654864     0.01700
C2577       C  0.77244013  0.52674940  0.00118511     0.01700
C2578       C  0.81203092  0.52771577  0.10015928     0.02600
C2579       C  0.79184894  0.52586040  0.07433481    -0.13600
C2580       C  0.79764123  0.00323399  0.05028611     0.00100
C2581       C  0.82316232  0.98126509  0.05367280    -0.12100
C2582       C  0.83645161  0.97677874  0.08376564     0.02600
C2583       C  0.82909397  0.99991259  0.10708153    -0.11500
H2584       H  0.77117663  0.54087660  0.07413418     0.08200
H2585       H  0.83020260  0.96611119  0.03432952     0.05700
H2586       H  0.83834911  0.99836180  0.13064987     0.05500
C2587       C  0.81507393  0.60370097  0.02813583     0.02600
C2588       C  0.83244332  0.60994864  0.50057772    -0.13600
C2589       C  0.83597234  0.58675806  0.47687182     0.00100
C2590       C  0.81999384  0.55775403  0.48044403    -0.12100
C2591       C  0.79538817  0.55467060  0.50310412     0.02600
C2592       C  0.79276550  0.57878967  0.02666900    -0.11500
H2593       H  0.84621277  0.63169217  0.49923060     0.08200
H2594       H  0.82500284  0.53875640  0.46412702     0.05700
H2595       H  0.77371801  0.57882187  0.04364157     0.05500
C2596       C  0.64980984  0.53195893  0.43368900     0.02600
C2597       C  0.63957751  0.00379167  0.41959187    -0.13600
C2598       C  0.66007636  0.97818323  0.41714218     0.00100
C2599       C  0.69037944  0.97997669  0.43112827    -0.12100
C2600       C  0.69690083  0.00375784  0.45395176     0.02600
C2601       C  0.67527161  0.52968907  0.45517637    -0.11500
H2602       H  0.61730621  0.00356846  0.40687420     0.08200
H2603       H  0.70794444  0.96253442  0.42489271     0.05700
H2604       H  0.67684526  0.54714805  0.47360709     0.05500
C2605       C  0.72739080  0.59325197  0.42033032     0.02600
C2606       C  0.72849258  0.57483573  0.44774407    -0.13600
C2607       C  0.75088303  0.54969153  0.45005987     0.00100
C2608       C  0.77539050  0.54751087  0.42679986    -0.12100
C2609       C  0.77897600  0.57192434  0.40440051     0.02600
C2610       C  0.75385883  0.59320593  0.40079468    -0.11500
H2611       H  0.71191993  0.57987581  0.46643360     0.08200
H2612       H  0.79253749  0.52842285  0.42747875     0.05700
H2613       H  0.75579984  0.61221557  0.38398211     0.05500
C2614       C  0.72830241  0.91774637  0.08903274     0.02600
C2615       C  0.75418592  0.89735838  0.09027628    -0.13600
C2616       C  0.78171085  0.90320367  0.07339322     0.00100
C2617       C  0.78048154  0.92602300  0.04866890    -0.12100
C2618       C  0.75468575  0.94830826  0.04704063     0.02600
C2619       C  0.73063338  0.94558862  0.07063279    -0.11500
H2620       H  0.75377657  0.87733859  0.10647260     0.08200
H2621       H  0.79953217  0.92664277  0.03161919     0.05700
H2622       H  0.71315308  0.96403290  0.07369485     0.05500
C2623       C  0.66433982  0.91733385  0.02465675     0.02600
C2624       C  0.66165309  0.89801553  0.49855903    -0.13600
C2625       C  0.67968703  0.90341980  0.47183427     0.00100
C2626       C  0.70461596  0.92562095  0.47324296    -0.12100
C2627       C  0.70455891  0.94864284  0.99776761     0.02600
C2628       C  0.68160438  0.94563460  0.02205192    -0.11500
H2629       H  0.64375974  0.87964466  0.49855208     0.08200
H2630       H  0.72247893  0.92599885  0.45486207     0.05700
H2631       H  0.67836796  0.96404209  0.03943193     0.05500
C2632       C  0.52364911  0.74532785  0.47548976     0.01700
C2633       C  0.99865273  0.72237239  0.47447697     0.01700
C2634       C  0.97498528  0.72167207  0.49865711     0.01700
C2635       C  0.97409337  0.74658909  0.02137286     0.01700
C2636       C  0.99757703  0.77090234  0.02146081     0.01700
C2637       C  0.52369728  0.76934950  0.49966372     0.01700
C2638       C  0.59209069  0.82466971  0.47765203     0.02600
C2639       C  0.56084374  0.81266193  0.47874277    -0.13600
C2640       C  0.55205363  0.79127913  0.50307513     0.00100
C2641       C  0.57198484  0.79011531  0.03000797    -0.12100
C2642       C  0.60003752  0.80831030  0.03090464     0.02600
C2643       C  0.61241931  0.81892492  0.00257657    -0.11500
H2644       H  0.54453561  0.81816480  0.45994075     0.08200
H2645       H  0.56675499  0.77472622  0.04962611     0.05700
H2646       H  0.63623619  0.82858437  0.00219607     0.05500
C2647       C  0.58350001  0.76893221  0.41229065     0.02600
C2648       C  0.55375347  0.76569423  0.42724897    -0.13600
C2649       C  0.55060140  0.74322118  0.45204101     0.00100
C2650       C  0.57427917  0.71934570  0.45494666    -0.12100
C2651       C  0.59960495  0.71812992  0.43342558     0.02600
C2652       C  0.60672511  0.74582863  0.41751225    -0.11500
H2653       H  0.53516595  0.78290535  0.42287846     0.08200
H2654       H  0.57391798  0.70254586  0.47418504     0.05700
H2655       H  0.62983236  0.74750358  0.40641551     0.05500
C2656       C  0.96835327  0.84791251  0.06029596     0.02600
C2657       C  0.99592816  0.85468156  0.07668851    -0.13600
C2658       C  0.51537287  0.82970578  0.08747513     0.00100
C2659       C  0.51294538  0.80030935  0.07182451    -0.12100
C2660       C  0.99410531  0.79820465  0.04426642     0.02600
C2661       C  0.97020373  0.82171278  0.03980965    -0.11500
H2662       H  0.99927650  0.87862216  0.08381151     0.08200
H2663       H  0.52732678  0.78048898  0.07936438     0.05700
H2664       H  0.95338676  0.81983156  0.02075190     0.05500
C2665       C  0.91195495  0.77050235  0.08187295     0.02600
C2666       C  0.92636219  0.76740477  0.05212852    -0.13600
C2667       C  0.95150832  0.74502206  0.04831233     0.00100
C2668       C  0.95809174  0.72307428  0.07262893    -0.12100
C2669       C  0.93757820  0.72035619  0.09809347     0.02600
C2670       C  0.91821070  0.74659791  0.10417075    -0.11500
H2671       H  0.92005839  0.78359710  0.03343987     0.08200
H2672       H  0.97885846  0.70810663  0.07183260     0.05700
H2673       H  0.90373371  0.74588926  0.12493975     0.05500
C2674       C  0.52226767  0.65333375  0.42170371     0.02600
C2675       C  0.52097034  0.67364304  0.44753798    -0.13600
C2676       C  0.49793011  0.69812173  0.44862530     0.00100
C2677       C  0.97387576  0.69897331  0.42522688    -0.12100
C2678       C  0.97049926  0.67293941  0.40488313     0.02600
C2679       C  0.49545318  0.65093716  0.40315146    -0.11500
H2680       H  0.53790363  0.67045163  0.46609894     0.08200
H2681       H  0.95666783  0.71800569  0.42468403     0.05700
H2682       H  0.49369178  0.63040156  0.38816711     0.05500
C2683       C  0.91075852  0.66274483  0.47478807     0.02600
C2684       C  0.92721960  0.69152968  0.47776438    -0.13600
C2685       C  0.95160104  0.69440128  0.50041195     0.00100
C2686       C  0.95387945  0.67045669  0.02401932    -0.12100
C2687       C  0.93135559  0.64596064  0.02560378     0.02600
C2688       C  0.91383921  0.63978048  0.49859630    -0.11500
H2689       H  0.92274348  0.71039690  0.46113388     0.08200
H2690       H  0.97253803  0.67050607  0.04117333     0.05700
H2691       H  0.89985369  0.61815389  0.49767762     0.05500
C2692       C  0.77213747  0.72833284  0.24748513     0.01700
C2693       C  0.74717671  0.72701380  0.27011525     0.01700
C2694       C  0.72251109  0.74992560  0.26913000     0.01700
C2695       C  0.72221533  0.77439299  0.24560644     0.01700
C2696       C  0.74921766  0.77767134  0.22497861     0.01700
C2697       C  0.77350217  0.75370626  0.22496758     0.01700
C2698       C  0.77018199  0.66727878  0.33408761     0.02600
C2699       C  0.74794958  0.64341203  0.32642615    -0.13600
C2700       C  0.72062131  0.65035303  0.30993511     0.00100
C2701       C  0.72216111  0.67595822  0.28910522    -0.12100
C2702       C  0.74534579  0.69988572  0.29332424     0.02600
C2703       C  0.76660776  0.69705515  0.31924392    -0.11500
H2704       H  0.74956615  0.61966026  0.33588595     0.08200
H2705       H  0.70570534  0.67682132  0.26974672     0.05700
H2706       H  0.78188542  0.71652604  0.32575862     0.05500
C2707       C  0.65024122  0.82274506  0.21533158     0.02600
C2708       C  0.64459717  0.84162721  0.24159704    -0.13600
C2709       C  0.66120986  0.83755790  0.26904174     0.00100
C2710       C  0.68834512  0.81849517  0.26905342    -0.12100
C2711       C  0.69428990  0.79724882  0.24393022     0.02600
C2712       C  0.67298493  0.79800971  0.21777740    -0.11500
H2713       H  0.62867321  0.86146724  0.24025068     0.08200
H2714       H  0.70439270  0.82047033  0.28855425     0.05700
H2715       H  0.67516430  0.78089560  0.19890782     0.05500
C2716       C  0.85414978  0.77831024  0.19179273     0.02600
C2717       C  0.86131108  0.75017610  0.17599781    -0.13600
C2718       C  0.83754438  0.72843825  0.16609905     0.00100
C2719       C  0.80649964  0.73351812  0.17793597    -0.12100
C2720       C  0.80174067  0.75580324  0.20298778     0.02600
C2721       C  0.82641644  0.77755481  0.20983350    -0.11500
H2722       H  0.88585826  0.74707546  0.16972007     0.08200
H2723       H  0.78742010  0.71804962  0.17065830     0.05700
H2724       H  0.82584042  0.79192654  0.23078997     0.05500
C2725       C  0.72956992  0.84538697  0.16930056     0.02600
C2726       C  0.75445576  0.86633221  0.17430107    -0.13600
C2727       C  0.78135638  0.85536542  0.18966898     0.00100
C2728       C  0.77745772  0.82946103  0.21028019    -0.12100
C2729       C  0.75291149  0.80714275  0.20503419     0.02600
C2730       C  0.73118244  0.81428329  0.18107207    -0.11500
H2731       H  0.75514013  0.88881521  0.16169798     0.08200
H2732       H  0.79299347  0.82759716  0.23017232     0.05700
H2733       H  0.71473468  0.79665334  0.17278570     0.05500
C2734       C  0.67587983  0.77343895  0.34142726     0.02600
C2735       C  0.70148392  0.77025819  0.32067953    -0.13600
C2736       C  0.69833971  0.74936739  0.29472661     0.00100
C2737       C  0.67317305  0.72703596  0.29447359    -0.12100
C2738       C  0.65300001  0.72516304  0.32057173     0.02600
C2739       C  0.65209076  0.75057274  0.34088829    -0.11500
H2740       H  0.72145965  0.78637052  0.32222811     0.08200
H2741       H  0.66988432  0.71078037  0.27514302     0.05700
H2742       H  0.63181638  0.75238434  0.35649176     0.05500
C2743       C  0.84277190  0.67905904  0.27457399     0.02600
C2744       C  0.84883440  0.66238194  0.24727771    -0.13600
C2745       C  0.82806346  0.66228523  0.22173919     0.00100
C2746       C  0.80048814  0.68082776  0.22371983    -0.12100
C2747       C  0.79773180  0.70365773  0.24827521     0.02600
C2748       C  0.81973008  0.70292336  0.27355849    -0.15100
H2749       H  0.87017871  0.64826690  0.24672982     0.08200
H2750       H  0.78305520  0.67963564  0.20516213     0.05700
H2751       H  0.81881054  0.72024550  0.29224793     0.05500
C2752       C  0.52903482  0.99839889  0.27186803     0.01700
C2753       C  0.52800547  0.97351648  0.24878208     0.01700
C2754       C  0.50567384  0.97568878  0.22343816     0.01700
C2755       C  0.98216078  0.00030034  0.22360724     0.01700
C2756       C  0.98189874  0.52345368  0.24798842     0.01700
C2757       C  0.50566172  0.52291783  0.27155400     0.01700
C2758       C  0.52954142  0.59948100  0.31174839     0.02600
C2759       C  0.50205713  0.60509114  0.32899492    -0.13600
C2760       C  0.98017996  0.58060568  0.33603716     0.00100
C2761       C  0.98499222  0.55116278  0.32097001    -0.12100
C2762       C  0.50687586  0.54924931  0.29529291     0.02600
C2763       C  0.52902927  0.57406044  0.29087281    -0.11500
H2764       H  0.49968278  0.62857491  0.33900239     0.08200
H2765       H  0.96986913  0.53125877  0.32680234     0.05700
H2766       H  0.54567447  0.57392411  0.27146006     0.05500
C2767       C  0.60113726  0.52503706  0.31887336     0.02600
C2768       C  0.57941849  0.52286024  0.29400823    -0.13600
C2769       C  0.55478085  0.99966223  0.29598664     0.00100
C2770       C  0.55391474  0.97947338  0.32245660    -0.12100
C2771       C  0.58092224  0.97665891  0.34115630     0.02600
C2772       C  0.60495812  0.99880226  0.33836253    -0.11500
H2773       H  0.58120737  0.53936156  0.27462264     0.08200
H2774       H  0.53349183  0.96499319  0.32771021     0.05700
H2775       H  0.62554404  0.99747223  0.35352320     0.05500
C2776       C  0.56094377  0.89444162  0.27942365     0.02600
C2777       C  0.54411297  0.92312174  0.27817514    -0.13600
C2778       C  0.54789542  0.94373724  0.25217031     0.00100
C2779       C  0.56852388  0.93351925  0.22796765    -0.12100
C2780       C  0.57630596  0.90103731  0.22504768     0.02600
C2781       C  0.57106970  0.88102035  0.25094724    -0.11500
H2782       H  0.52749398  0.92806877  0.29680152     0.08200
H2783       H  0.57701375  0.95017030  0.21054221     0.05700
H2784       H  0.57897098  0.85652913  0.25052096     0.05500
C2785       C  0.92498003  0.58802035  0.22224551     0.02600
C2786       C  0.95367652  0.57156723  0.22545797    -0.13600
C2787       C  0.95615504  0.54801370  0.24936185     0.00100
C2788       C  0.93312603  0.54739130  0.27400988    -0.12100
C2789       C  0.90897406  0.57014832  0.27452103     0.02600
C2790       C  0.90316666  0.58664371  0.24715251    -0.11500
H2791       H  0.97237502  0.57481032  0.20825103     0.08200
H2792       H  0.93380282  0.52970511  0.29239927     0.05700
H2793       H  0.88108149  0.59955085  0.24610912     0.05500
C2794       C  0.92315573  0.52413085  0.15873995     0.02600
C2795       C  0.90426955  0.99789191  0.15919527    -0.13600
C2796       C  0.90938573  0.97224110  0.17919425     0.00100
C2797       C  0.93202763  0.97552748  0.20284437    -0.12100
C2798       C  0.95537048  0.99966644  0.20020236     0.02600
C2799       C  0.95154545  0.52298146  0.17609099    -0.11500
H2800       H  0.88643660  0.99610941  0.14130955     0.08200
H2801       H  0.93242878  0.95864810  0.22202746     0.05700
H2802       H  0.96950737  0.54077469  0.17194756     0.05500
C2803       C  0.98083186  0.90959943  0.16745754     0.02600
C2804       C  0.50625206  0.90950695  0.14666982    -0.13600
C2805       C  0.53237141  0.92945847  0.14990782     0.00100
C2806       C  0.53062904  0.95350088  0.17294531    -0.12100
C2807       C  0.50647558  0.95204205  0.19675265     0.02600
C2808       C  0.98315268  0.92780054  0.19487751    -0.11500
H2809       H  0.50723577  0.89107370  0.13040724     0.08200
H2810       H  0.54900760  0.97145942  0.17396486     0.05700
H2811       H  0.96643409  0.92376128  0.21376559     0.05500
O2812       O  0.62350750  0.57719077  0.32250976    -0.80700
O2813       O  0.62693287  0.67417435  0.32272782    -0.80700
O2814       O  0.55868860  0.59804795  0.35817454    -0.80700
O2815       O  0.69191346  0.65210296  0.35736012    -0.80700
O2816       O  0.57976654  0.62608771  0.31897584    -0.80800
O2817       O  0.67017011  0.62468902  0.31848752    -0.80700
O2818       O  0.64943353  0.69352901  0.36499366    -0.80700
O2819       O  0.60115069  0.55616305  0.36427381    -0.80700
C2820       C  0.60810030  0.55490470  0.33506077     1.09000
C2821       C  0.64318632  0.69551512  0.33580640     1.08900
C2822       C  0.55850804  0.60729497  0.32939131     1.09000
C2823       C  0.69165463  0.64325476  0.32840145     1.08900
O2824       O  0.69566156  0.60016771  0.37638776    -0.80700
O2825       O  0.55458920  0.65003172  0.37738471    -0.80800
O2826       O  0.62419359  0.58186799  0.42357776    -0.80700
O2827       O  0.62619305  0.66826629  0.42381543    -0.80700
O2828       O  0.59813185  0.69069104  0.38544132    -0.80700
O2829       O  0.65212484  0.55923954  0.38515411    -0.80700
O2830       O  0.67672065  0.62196413  0.41930935    -0.80700
O2831       O  0.57390521  0.62732546  0.41960396    -0.80700
Co2832     Co  0.65698709  0.59308350  0.35082582     1.51500
Co2833     Co  0.59329213  0.65740271  0.35124136     1.51700
Co2834     Co  0.59249693  0.59392563  0.39134515     1.51600
Co2835     Co  0.65806765  0.65580183  0.39134684     1.51500
O2836       O  0.62517100  0.62512117  0.37117146    -1.42600
C2837       C  0.69808952  0.60569134  0.40559833     1.08900
C2838       C  0.55215526  0.64327707  0.40640625     1.09000
C2839       C  0.64321357  0.56040764  0.41424701     1.08900
C2840       C  0.60708074  0.68966645  0.41437751     1.08900
O2841       O  0.87856046  0.55570860  0.15027247    -0.80700
O2842       O  0.89230212  0.69045597  0.09775015    -0.80700
O2843       O  0.92474801  0.62052999  0.07649613    -0.80700
O2844       O  0.92711003  0.61650210  0.17141211    -0.80700
O2845       O  0.88563584  0.64924999  0.05673070    -0.80800
O2846       O  0.88204259  0.59770422  0.19078353    -0.80700
O2847       O  0.93283940  0.66706777  0.12157433    -0.80700
O2848       O  0.92170343  0.57190203  0.12526664    -0.80700
C2849       C  0.90810697  0.55259778  0.14422470     1.09000
C2850       C  0.92151926  0.68989818  0.10502579     1.08900
C2851       C  0.91411296  0.63890673  0.05519192     1.09000
C2852       C  0.91189436  0.60111902  0.19268879     1.08900
O2853       O  0.82624737  0.63166667  0.17236732    -0.80700
O2854       O  0.82344787  0.62962917  0.07946537    -0.80800
O2855       O  0.85944922  0.55624900  0.09900853    -0.80700
O2856       O  0.87826502  0.69433243  0.15071162    -0.80700
O2857       O  0.83243336  0.68098797  0.12993304    -0.80700
O2858       O  0.82004935  0.58059059  0.12357882    -0.80700
O2859       O  0.87141602  0.65150093  0.19061605    -0.80700
O2860       O  0.86114519  0.59950334  0.05797202    -0.80700
Co2861     Co  0.85187648  0.59480205  0.15587198     1.51500
Co2862     Co  0.85784785  0.65921200  0.09418849     1.51700
Co2863     Co  0.89217787  0.59026222  0.09269479     1.51600
Co2864     Co  0.90187722  0.65364712  0.15515003     1.51500
O2865       O  0.87589308  0.62457017  0.12443205    -1.42600
C2866       C  0.84145713  0.64812344  0.19272090     1.08900
C2867       C  0.83289886  0.61061832  0.05767195     1.09000
C2868       C  0.83029631  0.55726600  0.10705495     1.08900
C2869       C  0.84888623  0.69970229  0.14763012     1.08900
O2870       O  0.69763141  0.84944383  0.12367287    -0.80700
O2871       O  0.55436092  0.82428300  0.13021329    -0.80700
O2872       O  0.65158254  0.86504036  0.17970684    -0.80700
O2873       O  0.60587788  0.85935104  0.05284454    -0.80700
O2874       O  0.61586992  0.82578000  0.16972926    -0.80800
O2875       O  0.62004593  0.81961011  0.08264902    -0.80700
O2876       O  0.55900515  0.86229904  0.09305669    -0.80700
O2877       O  0.68236248  0.87534529  0.16771264    -0.80700
C2878       C  0.70181648  0.85670122  0.15288488     1.09000
C2879       C  0.54394559  0.83865941  0.10540207     1.08900
C2880       C  0.63909898  0.83727327  0.18552555     1.09000
C2881       C  0.60782355  0.82954571  0.05747776     1.08900
O2882       O  0.66100925  0.87458860  0.05984245    -0.80700
O2883       O  0.57884516  0.87047983  0.17687084    -0.80800
O2884       O  0.67889926  0.92086565  0.11872565    -0.80700
O2885       O  0.57939045  0.92507507  0.11565409    -0.80700
O2886       O  0.56491583  0.88537528  0.14696057    -0.80700
O2887       O  0.69474527  0.87462730  0.09896709    -0.80700
O2888       O  0.63241909  0.91844899  0.07129554    -0.80700
O2889       O  0.61882698  0.90292317  0.18922214    -0.80700
Co2890     Co  0.65675258  0.84521797  0.09797349     1.51500
Co2891     Co  0.59301265  0.84866918  0.13468380     1.51700
Co2892     Co  0.64710523  0.90474301  0.15137690     1.51600
Co2893     Co  0.59682499  0.89190921  0.08609718     1.51500
O2894       O  0.62680692  0.87475597  0.12057608    -1.42600
C2895       C  0.65252942  0.90365146  0.05412563     1.08900
C2896       C  0.59281504  0.88971872  0.19638235     1.09000
C2897       C  0.69867195  0.90473505  0.10276462     1.08900
C2898       C  0.56173067  0.91419878  0.13762739     1.08900
O2899       O  0.67928428  0.82056772  0.87391895    -0.80700
O2900       O  0.65199231  0.94303794  0.87384168    -0.80700
O2901       O  0.62429179  0.83461826  0.81011286    -0.80700
O2902       O  0.63621211  0.90388452  0.93699427    -0.80700
O2903       O  0.65667655  0.87609956  0.80899725    -0.80800
O2904       O  0.67749573  0.87057774  0.92621842    -0.80700
O2905       O  0.62908085  0.93153377  0.92066455    -0.80700
O2906       O  0.63626015  0.80985537  0.84584825    -0.80700
C2907       C  0.66473479  0.80368329  0.85384496     1.09000
C2908       C  0.64712700  0.94921627  0.90291015     1.08900
C2909       C  0.64694071  0.85012745  0.79775809     1.09000
C2910       C  0.66474071  0.89219670  0.94286680     1.08900
O2911       O  0.63246539  0.83527330  0.94120364    -0.80700
O2912       O  0.60422059  0.90463287  0.81508401    -0.80800
O2913       O  0.57850077  0.81408745  0.87727402    -0.80700
O2914       O  0.58869267  0.93948587  0.88205889    -0.80700
O2915       O  0.60747076  0.92954050  0.83344896    -0.80700
O2916       O  0.62315875  0.80625400  0.90385547    -0.80700
O2917       O  0.58857725  0.86417624  0.93803488    -0.80700
O2918       O  0.57295052  0.86116558  0.82262232    -0.80700
Co2919     Co  0.64925482  0.84618294  0.89930785     1.51500
Co2920     Co  0.64608421  0.90511615  0.84465122     1.51700
Co2921     Co  0.60406426  0.84355246  0.85105375     1.51600
Co2922     Co  0.59609814  0.89937776  0.90695243     1.51500
O2923       O  0.62385267  0.87655244  0.87550776    -1.42600
C2924       C  0.60500995  0.84271475  0.95110303     1.08900
C2925       C  0.57971819  0.88629714  0.80757708     1.09000
C2926       C  0.59476333  0.79813508  0.89691013     1.08900
C2927       C  0.59117374  0.94639580  0.85304196     1.08900
O2928       O  0.87067035  0.67465084  0.82429451    -0.80700
O2929       O  0.87659661  0.66808293  0.92804856    -0.80700
O2930       O  0.80494815  0.62708388  0.84609002    -0.80700
O2931       O  0.93542065  0.63139414  0.90154143    -0.80700
O2932       O  0.81691664  0.67257035  0.86997432    -0.80800
O2933       O  0.92081312  0.67461066  0.87444590    -0.80700
O2934       O  0.90658496  0.62450587  0.93611082    -0.80700
O2935       O  0.84780359  0.63204115  0.80296187    -0.80700
C2936       C  0.85313059  0.66208050  0.80322584     1.09000
C2937       C  0.89662678  0.65194749  0.94491263     1.08900
C2938       C  0.79920083  0.65626712  0.85116416     1.09000
C2939       C  0.93988390  0.66042327  0.89348428     1.08900
O2940       O  0.94369779  0.61967949  0.84558354    -0.80700
O2941       O  0.81329484  0.61421540  0.90131405    -0.80800
O2942       O  0.87918507  0.57365731  0.82346675    -0.80700
O2943       O  0.87062223  0.58026792  0.92983168    -0.80700
O2944       O  0.84033868  0.62396922  0.93675097    -0.80700
O2945       O  0.90162353  0.61681451  0.80267711    -0.80700
O2946       O  0.93186613  0.57459311  0.87079932    -0.80700
O2947       O  0.82880711  0.57175463  0.87352645    -0.80700
Co2948     Co  0.90626408  0.64663066  0.83869428     1.51500
Co2949     Co  0.84792062  0.64586175  0.89574536     1.51700
Co2950     Co  0.84301948  0.60096147  0.83828936     1.51600
Co2951     Co  0.89976670  0.60112281  0.89614608     1.51500
O2952       O  0.87432034  0.62362093  0.86588656    -1.42600
C2953       C  0.94998017  0.59088048  0.85194682     1.08900
C2954       C  0.80968373  0.58507488  0.89328908     1.09000
C2955       C  0.89712078  0.58669655  0.80282219     1.08900
C2956       C  0.85042181  0.59686851  0.94647050     1.08900
O2957       O  0.83462809  0.87254196  0.68035549    -0.80700
O2958       O  0.93159553  0.87872693  0.67106168    -0.80700
O2959       O  0.85125111  0.80691021  0.64480402    -0.80700
O2960       O  0.90605148  0.94008947  0.63558338    -0.80700
O2961       O  0.88212617  0.82877478  0.68140496    -0.80800
O2962       O  0.88281147  0.92080338  0.67875838    -0.80700
O2963       O  0.94712780  0.89881559  0.62564023    -0.80700
O2964       O  0.80920023  0.84958344  0.64155037    -0.80700
C2965       C  0.81047358  0.85807821  0.67046766     1.09000
C2966       C  0.95146756  0.89496051  0.65502785     1.08900
C2967       C  0.86217026  0.80725161  0.67291029     1.09000
C2968       C  0.90013174  0.94168196  0.66514702     1.08900
O2969       O  0.85234406  0.94432913  0.62453624    -0.80700
O2970       O  0.90238730  0.80376451  0.62379454    -0.80800
O2971       O  0.83022239  0.87201332  0.57924067    -0.80700
O2972       O  0.91718536  0.87322370  0.57066802    -0.80700
O2973       O  0.94190149  0.84665978  0.60907099    -0.80700
O2974       O  0.81180101  0.90040047  0.61967896    -0.80700
O2975       O  0.86922931  0.92673719  0.57894341    -0.80700
O2976       O  0.87784112  0.81945812  0.58129660    -0.80700
Co2977     Co  0.84817274  0.90587885  0.65047530     1.51500
Co2978     Co  0.91168049  0.84311337  0.64644190     1.51700
Co2979     Co  0.84524236  0.84011434  0.61115421     1.51600
Co2980     Co  0.90645015  0.90629346  0.60293186     1.51500
O2981       O  0.87791790  0.87375872  0.62755848    -1.42600
C2982       C  0.85386989  0.94765897  0.59509325     1.08900
C2983       C  0.89634319  0.79967522  0.59505578     1.09000
C2984       C  0.81059709  0.89231722  0.59043937     1.08900
C2985       C  0.93967274  0.85490971  0.57985013     1.08900
C2986       C  0.77462314  0.00126056  0.52349788     0.01700
C2987       C  0.75299887  0.97494758  0.52206978     0.01700
C2988       C  0.72824303  0.97533883  0.49849644     0.01700
C2989       C  0.72543787  0.00143629  0.97641322     0.01700
C2990       C  0.74916276  0.52580642  0.97655927     0.01700
C2991       C  0.77244137  0.52675464  0.50117552     0.01700
C2992       C  0.81203136  0.52771552  0.60015189     0.02600
C2993       C  0.79184952  0.52586087  0.57432748    -0.13600
C2994       C  0.79763475  0.00323945  0.55028091     0.00100
C2995       C  0.82315761  0.98127219  0.55366858    -0.12100
C2996       C  0.83644507  0.97678498  0.58376255     0.02600
C2997       C  0.82908126  0.99991629  0.60707952    -0.11500
H2998       H  0.77117498  0.54087395  0.57412951     0.08200
H2999       H  0.83020080  0.96612007  0.53432492     0.05700
H3000       H  0.83833313  0.99836457  0.63064908     0.05500
C3001       C  0.81505440  0.60371268  0.52813716     0.02600
C3002       C  0.83246761  0.60992522  0.00057675    -0.13600
C3003       C  0.83598982  0.58673033  0.97687395     0.00100
C3004       C  0.82000108  0.55773254  0.98044946    -0.12100
C3005       C  0.79539369  0.55466041  0.00310948     0.02600
C3006       C  0.79275289  0.57879561  0.52666662    -0.11500
H3007       H  0.84624202  0.63166526  0.99922578     0.08200
H3008       H  0.82500413  0.53873130  0.96413491     0.05700
H3009       H  0.77370469  0.57882060  0.54363838     0.05500
C3010       C  0.64980867  0.53196358  0.93370335     0.02600
C3011       C  0.63958937  0.00378769  0.91959044    -0.13600
C3012       C  0.66008607  0.97817735  0.91714578     0.00100
C3013       C  0.69038779  0.97996940  0.93113441    -0.12100
C3014       C  0.69690937  0.00375202  0.95395606     0.02600
C3015       C  0.67527271  0.52969098  0.95518760    -0.11500
H3016       H  0.61731977  0.00356535  0.90686979     0.08200
H3017       H  0.70795203  0.96252549  0.92490138     0.05700
H3018       H  0.67685243  0.54715156  0.97361631     0.05500
C3019       C  0.72739776  0.59323826  0.92032527     0.02600
C3020       C  0.72849838  0.57483150  0.94774574    -0.13600
C3021       C  0.75088452  0.54968358  0.95006764     0.00100
C3022       C  0.77539077  0.54749160  0.92680799    -0.12100
C3023       C  0.77897861  0.57189525  0.90439930     0.02600
C3024       C  0.75386307  0.59317706  0.90078510    -0.11500
H3025       H  0.71192656  0.57987935  0.96643407     0.08200
H3026       H  0.79253420  0.52840065  0.92749183     0.05700
H3027       H  0.75580597  0.61217792  0.88396337     0.05500
C3028       C  0.72830459  0.91774847  0.58902779     0.02600
C3029       C  0.75418913  0.89736250  0.59026928    -0.13600
C3030       C  0.78171251  0.90321070  0.57338581     0.00100
C3031       C  0.78048038  0.92602931  0.54866087    -0.12100
C3032       C  0.75468246  0.94831216  0.54703320     0.02600
C3033       C  0.73063155  0.94559061  0.57062690    -0.11500
H3034       H  0.75378242  0.87734275  0.60646588     0.08200
H3035       H  0.79953058  0.92665099  0.53161070     0.05700
H3036       H  0.71315000  0.96403348  0.57369028     0.05500
C3037       C  0.66434389  0.91733183  0.52465398     0.02600
C3038       C  0.66164765  0.89801857  0.99856153    -0.13600
C3039       C  0.67968746  0.90341773  0.97183971     0.00100
C3040       C  0.70462010  0.92561485  0.97325115    -0.12100
C3041       C  0.70455471  0.94864728  0.49776067     0.02600
C3042       C  0.68160275  0.94563582  0.52204681    -0.11500
H3043       H  0.64375064  0.87965107  0.99855271     0.08200
H3044       H  0.72248517  0.92598987  0.95487217     0.05700
H3045       H  0.67836533  0.96404304  0.53942695     0.05500
C3046       C  0.52364975  0.74532973  0.97547882     0.01700
C3047       C  0.99863833  0.72236788  0.97447186     0.01700
C3048       C  0.97497297  0.72166327  0.99865343     0.01700
C3049       C  0.97410747  0.74659923  0.52137551     0.01700
C3050       C  0.99759168  0.77091255  0.52146071     0.01700
C3051       C  0.52369609  0.76935127  0.99965334     0.01700
C3052       C  0.59209188  0.82466948  0.97764866     0.02600
C3053       C  0.56084509  0.81266176  0.97873596    -0.13600
C3054       C  0.55205232  0.79127996  0.00306784     0.00100
C3055       C  0.57198907  0.79011428  0.53001305    -0.12100
C3056       C  0.60004235  0.80830837  0.53090640     0.02600
C3057       C  0.61242113  0.81892294  0.50257704    -0.11500
H3058       H  0.54453931  0.81816362  0.95993160     0.08200
H3059       H  0.56676077  0.77472601  0.54963224     0.05700
H3060       H  0.63623855  0.82858079  0.50219388     0.05500
C3061       C  0.58350901  0.76892857  0.91228752     0.02600
C3062       C  0.55376078  0.76569182  0.92724196    -0.13600
C3063       C  0.55060530  0.74322048  0.95203454     0.00100
C3064       C  0.57428231  0.71934467  0.95494484    -0.12100
C3065       C  0.59961108  0.71812701  0.93342707     0.02600
C3066       C  0.60673329  0.74582475  0.91751249    -0.11500
H3067       H  0.53517420  0.78290320  0.92286844     0.08200
H3068       H  0.57391803  0.70254583  0.97418411     0.05700
H3069       H  0.62984112  0.74749835  0.90641645     0.05500
C3070       C  0.96836468  0.84792380  0.56029640     0.02600
C3071       C  0.99593760  0.85468823  0.57669261    -0.13600
C3072       C  0.51538302  0.82970083  0.58748600     0.00100
C3073       C  0.51295218  0.80030488  0.57183571    -0.12100
C3074       C  0.99411994  0.79821686  0.54426420     0.02600
C3075       C  0.97021884  0.82172606  0.53980609    -0.11500
H3076       H  0.99928758  0.87864344  0.58383326     0.08200
H3077       H  0.52733311  0.78048393  0.57937453     0.05700
H3078       H  0.95340668  0.81984861  0.52074417     0.05500
C3079       C  0.91194198  0.77051428  0.58185122     0.02600
C3080       C  0.92637075  0.76742356  0.55211705    -0.13600
C3081       C  0.95151626  0.74503826  0.54831108     0.00100
C3082       C  0.95808324  0.72308621  0.57262970    -0.12100
C3083       C  0.93755144  0.72036459  0.59808057     0.02600
C3084       C  0.91816969  0.74660066  0.60414587    -0.11500
H3085       H  0.92007896  0.78361893  0.53342681     0.08200
H3086       H  0.97884673  0.70811329  0.57183959     0.05700
H3087       H  0.90367179  0.74588421  0.62487780     0.05500
C3088       C  0.52226753  0.65333237  0.92169771     0.02600
C3089       C  0.52096931  0.67364563  0.94752822    -0.13600
C3090       C  0.49792988  0.69812477  0.94861082     0.00100
C3091       C  0.97386007  0.69896777  0.92522284    -0.12100
C3092       C  0.97048924  0.67293648  0.90487478     0.02600
C3093       C  0.49545423  0.65093368  0.90314376    -0.11500
H3094       H  0.53790120  0.67045618  0.96609068     0.08200
H3095       H  0.95664719  0.71799582  0.92468415     0.05700
H3096       H  0.49369383  0.63039496  0.88816356     0.05500
C3097       C  0.91076514  0.66271407  0.97479149     0.02600
C3098       C  0.92721429  0.69150570  0.97776737    -0.13600
C3099       C  0.95159709  0.69438616  0.00041195     0.00100
C3100       C  0.95387114  0.67047098  0.52402026    -0.12100
C3101       C  0.93133862  0.64598219  0.52560041     0.02600
C3102       C  0.91385725  0.63975038  0.99859996    -0.11500
H3103       H  0.92272934  0.71037148  0.96113763     0.08200
H3104       H  0.97252671  0.67051435  0.54117764     0.05700
H3105       H  0.89987980  0.61811853  0.99768297     0.05500
C3106       C  0.77214606  0.72832656  0.74749128     0.01700
C3107       C  0.74718513  0.72700477  0.77012101     0.01700
C3108       C  0.72251985  0.74991698  0.76913586     0.01700
C3109       C  0.72222433  0.77438533  0.74561262     0.01700
C3110       C  0.74922710  0.77766664  0.72498608     0.01700
C3111       C  0.77351224  0.75370288  0.72497633     0.01700
C3112       C  0.77018569  0.66725079  0.83408205     0.02600
C3113       C  0.74795086  0.64338818  0.82641430    -0.13600
C3114       C  0.72062209  0.65033786  0.80992681     0.00100
C3115       C  0.72216506  0.67594725  0.78910208    -0.12100
C3116       C  0.74535177  0.69987166  0.79332600     0.02600
C3117       C  0.76661425  0.69703162  0.81924492    -0.11500
H3118       H  0.74956412  0.61963431  0.83586945     0.08200
H3119       H  0.70571018  0.67681550  0.76974307     0.05700
H3120       H  0.78189434  0.71649915  0.82576389     0.05500
C3121       C  0.65025284  0.82273862  0.71533558     0.02600
C3122       C  0.64461040  0.84162222  0.74160022    -0.13600
C3123       C  0.66122263  0.83755248  0.76904505     0.00100
C3124       C  0.68835606  0.81848773  0.76905804    -0.12100
C3125       C  0.69429899  0.79724020  0.74393588     0.02600
C3126       C  0.67299406  0.79800105  0.71778293    -0.11500
H3127       H  0.62868819  0.86146368  0.74025310     0.08200
H3128       H  0.70440348  0.82046199  0.78855918     0.05700
H3129       H  0.67517231  0.78088575  0.69891427     0.05500
C3130       C  0.85415134  0.77831212  0.69178027     0.02600
C3131       C  0.86131132  0.75017840  0.67598424    -0.13600
C3132       C  0.83754131  0.72843882  0.66609507     0.00100
C3133       C  0.80650030  0.73351684  0.67793979    -0.12100
C3134       C  0.80174763  0.75580014  0.70299344     0.02600
C3135       C  0.82642369  0.77755497  0.70983040    -0.11500
H3136       H  0.88584851  0.74708105  0.66970544     0.08200
H3137       H  0.78741860  0.71804936  0.67066523     0.05700
H3138       H  0.82585216  0.79192807  0.73078621     0.05500
C3139       C  0.72957665  0.84537676  0.66929869     0.02600
C3140       C  0.75446029  0.86632386  0.67429810    -0.13600
C3141       C  0.78136179  0.85535994  0.68966478     0.00100
C3142       C  0.77746608  0.82945649  0.71027846    -0.12100
C3143       C  0.75291885  0.80713725  0.70503803     0.02600
C3144       C  0.73118902  0.81427457  0.68107510    -0.11500
H3145       H  0.75514284  0.88880623  0.66169366     0.08200
H3146       H  0.79300280  0.82759599  0.73017013     0.05700
H3147       H  0.71474156  0.79664341  0.67279082     0.05500
C3148       C  0.67588627  0.77343334  0.84142981     0.02600
C3149       C  0.70149211  0.77024958  0.82068468    -0.13600
C3150       C  0.69834830  0.74935860  0.79473193     0.00100
C3151       C  0.67317974  0.72702961  0.79447691    -0.12100
C3152       C  0.65300364  0.72515961  0.82057266     0.02600
C3153       C  0.65209422  0.75057008  0.84088817    -0.11500
H3154       H  0.72146875  0.78636070  0.82223411     0.08200
H3155       H  0.66989066  0.71077433  0.77514622     0.05700
H3156       H  0.63181883  0.75238346  0.85649037     0.05500
C3157       C  0.84275954  0.67902104  0.77457330     0.02600
C3158       C  0.84881248  0.66234032  0.74727737    -0.13600
C3159       C  0.82804682  0.66226284  0.72173604     0.00100
C3160       C  0.80048106  0.68081854  0.72371712    -0.12100
C3161       C  0.79773452  0.70364622  0.74827523     0.02600
C3162       C  0.81973206  0.70289926  0.77355870    -0.15100
H3163       H  0.87014964  0.64821505  0.74672718     0.08200
H3164       H  0.78304804  0.67963588  0.70515908     0.05700
H3165       H  0.81881915  0.72021931  0.79225049     0.05500
C3166       C  0.52904859  0.99839919  0.77186743     0.01700
C3167       C  0.52801829  0.97351771  0.74878026     0.01700
C3168       C  0.50568657  0.97569325  0.72343625     0.01700
C3169       C  0.98216283  0.00031149  0.72359388     0.01700
C3170       C  0.98191517  0.52346397  0.74797298     0.01700
C3171       C  0.50567163  0.52292611  0.77154220     0.01700
C3172       C  0.52955229  0.59948209  0.81174610     0.02600
C3173       C  0.50206771  0.60508966  0.82899292    -0.13600
C3174       C  0.98019200  0.58060532  0.83602547     0.00100
C3175       C  0.98501022  0.55116374  0.82095817    -0.12100
C3176       C  0.50688635  0.54925442  0.79528289     0.02600
C3177       C  0.52903985  0.57406572  0.79086561    -0.11500
H3178       H  0.49969080  0.62857300  0.83900064     0.08200
H3179       H  0.96989213  0.53125621  0.82679143     0.05700
H3180       H  0.54568663  0.57393049  0.77145389     0.05500
C3181       C  0.60113117  0.52503139  0.81888877     0.02600
C3182       C  0.57942087  0.52285807  0.79401609    -0.13600
C3183       C  0.55479573  0.99966209  0.79598477     0.00100
C3184       C  0.55393216  0.97947268  0.82245439    -0.12100
C3185       C  0.58094161  0.97665804  0.84115127     0.02600
C3186       C  0.60497595  0.99880314  0.83835733    -0.11500
H3187       H  0.58121559  0.53936235  0.77463348     0.08200
H3188       H  0.53350950  0.96499308  0.82771043     0.05700
H3189       H  0.62556269  0.99747376  0.85351709     0.05500
C3190       C  0.56096070  0.89444374  0.77942461     0.02600
C3191       C  0.54412887  0.92312342  0.77817490    -0.13600
C3192       C  0.54790738  0.94373672  0.75216753     0.00100
C3193       C  0.56853345  0.93351614  0.72796363    -0.12100
C3194       C  0.57631747  0.90103408  0.72504719     0.02600
C3195       C  0.57108457  0.88101991  0.75094907    -0.11500
H3196       H  0.52751057  0.92807070  0.79680163     0.08200
H3197       H  0.57702178  0.95016545  0.71053584     0.05700
H3198       H  0.57898668  0.85652893  0.75052469     0.05500
C3199       C  0.92497068  0.58801080  0.72224201     0.02600
C3200       C  0.95367677  0.57157375  0.72545339    -0.13600
C3201       C  0.95616660  0.54801775  0.74935362     0.00100
C3202       C  0.93313964  0.54738135  0.77400277    -0.12100
C3203       C  0.90897375  0.57012270  0.77451607     0.02600
C3204       C  0.90315441  0.58661332  0.74714703    -0.11500
H3205       H  0.97237342  0.57482758  0.70824626     0.08200
H3206       H  0.93382562  0.52969303  0.79238972     0.05700
H3207       H  0.88105951  0.59950341  0.74610505     0.05500
C3208       C  0.92316569  0.52414125  0.65872626     0.02600
C3209       C  0.90425622  0.99789619  0.65920069    -0.13600
C3210       C  0.90937961  0.97224548  0.67919714     0.00100
C3211       C  0.93202790  0.97553337  0.70284094    -0.12100
C3212       C  0.95536943  0.99967302  0.70019252     0.02600
C3213       C  0.95155498  0.52299493  0.67607886    -0.11500
H3214       H  0.88641673  0.99611281  0.64132149     0.08200
H3215       H  0.93243222  0.95865654  0.72202596     0.05700
H3216       H  0.96951416  0.54079175  0.67193847     0.05500
C3217       C  0.98083533  0.90959573  0.66746166     0.02600
C3218       C  0.50626114  0.90948809  0.64669113    -0.13600
C3219       C  0.53237823  0.92944351  0.64991626     0.00100
C3220       C  0.53063502  0.95349603  0.67294425    -0.12100
C3221       C  0.50648276  0.95204384  0.69675327     0.02600
C3222       C  0.98315441  0.92780724  0.69487545    -0.11500
H3223       H  0.50724481  0.89103358  0.63042416     0.08200
H3224       H  0.54901372  0.97145448  0.67395811     0.05700
H3225       H  0.96643680  0.92377119  0.71376388     0.05500
O3226       O  0.62351000  0.57718195  0.82251841    -0.80700
O3227       O  0.62693923  0.67417058  0.82273056    -0.80700
O3228       O  0.55869706  0.59804404  0.85817437    -0.80700
O3229       O  0.69191708  0.65210028  0.85735410    -0.80700
O3230       O  0.57977747  0.62608423  0.81897698    -0.80800
O3231       O  0.67017012  0.62467988  0.81848741    -0.80700
O3232       O  0.64943744  0.69352761  0.86499590    -0.80700
O3233       O  0.60115795  0.55615933  0.86428662    -0.80700
C3234       C  0.60810341  0.55489796  0.83507313     1.09000
C3235       C  0.64319067  0.69551269  0.83580870     1.08900
C3236       C  0.55851823  0.60729202  0.82939106     1.09000
C3237       C  0.69165576  0.64324694  0.82839667     1.08900
O3238       O  0.69566861  0.60016689  0.87638519    -0.80700
O3239       O  0.55459278  0.65002789  0.87738204    -0.80800
O3240       O  0.62419705  0.58187288  0.92358569    -0.80700
O3241       O  0.62620259  0.66826465  0.92381744    -0.80700
O3242       O  0.59813598  0.69068592  0.88544456    -0.80700
O3243       O  0.65213145  0.55924018  0.88516610    -0.80700
O3244       O  0.67673233  0.62196233  0.91930836    -0.80700
O3245       O  0.57390708  0.62732739  0.91960445    -0.80700
Co3246     Co  0.65699106  0.59307861  0.85083055     1.51500
Co3247     Co  0.59329839  0.65739898  0.85124298     1.51700
Co3248     Co  0.59250199  0.59392551  0.89135020     1.51600
Co3249     Co  0.65807528  0.65579993  0.89134650     1.51500
O3250       O  0.62517686  0.62511866  0.87117467    -1.42600
C3251       C  0.69809900  0.60568788  0.90559562     1.08900
C3252       C  0.55215664  0.64327550  0.90640363     1.09000
C3253       C  0.64321758  0.56041140  0.91425841     1.08900
C3254       C  0.60708707  0.68966264  0.91438020     1.08900
O3255       O  0.87856460  0.55571203  0.65026407    -0.80700
O3256       O  0.89228659  0.69045287  0.59774587    -0.80700
O3257       O  0.92473568  0.62054205  0.57648819    -0.80700
O3258       O  0.92710190  0.61650354  0.67141228    -0.80700
O3259       O  0.88561702  0.64925437  0.55672639    -0.80800
O3260       O  0.88203419  0.59770536  0.69078135    -0.80700
O3261       O  0.93283014  0.66707532  0.62157097    -0.80700
O3262       O  0.92170284  0.57191243  0.62525412    -0.80700
C3263       C  0.90811137  0.55260657  0.64421390     1.09000
C3264       C  0.92150380  0.68990164  0.60501965     1.08900
C3265       C  0.91409678  0.63891880  0.55518645     1.09000
C3266       C  0.91188555  0.60111916  0.69268815     1.08900
O3267       O  0.82623765  0.63165835  0.67235910    -0.80700
O3268       O  0.82343300  0.62962920  0.57946971    -0.80800
O3269       O  0.85944858  0.55625025  0.59900177    -0.80700
O3270       O  0.87825691  0.69433140  0.65070885    -0.80700
O3271       O  0.83242312  0.68098620  0.62993538    -0.80700
O3272       O  0.82004752  0.58058796  0.62357261    -0.80700
O3273       O  0.87140255  0.65150103  0.69061017    -0.80700
O3274       O  0.86112960  0.59950782  0.55796837    -0.80700
Co3275     Co  0.85187261  0.59479956  0.65586615     1.51500
Co3276     Co  0.85783327  0.65921156  0.59418815     1.51700
Co3277     Co  0.89217068  0.59026870  0.59268651     1.51600
Co3278     Co  0.90186830  0.65364833  0.65514702     1.51500
O3279       O  0.87588525  0.62457145  0.62442804    -1.42600
C3280       C  0.84144396  0.64811583  0.69271394     1.08900
C3281       C  0.83288256  0.61062240  0.55767262     1.09000
C3282       C  0.83029569  0.55726522  0.60704806     1.08900
C3283       C  0.84887877  0.69970135  0.64762893     1.08900
O3284       O  0.69764161  0.84944025  0.62366904    -0.80700
O3285       O  0.55437681  0.82427433  0.63021714    -0.80700
O3286       O  0.65159318  0.86503481  0.67971099    -0.80700
O3287       O  0.60588563  0.85934866  0.55284607    -0.80700
O3288       O  0.61588440  0.82577208  0.66973079    -0.80800
O3289       O  0.62005583  0.81960724  0.58264876    -0.80700
O3290       O  0.55901621  0.86229281  0.59306206    -0.80700
O3291       O  0.68237214  0.87533677  0.66771112    -0.80700
C3292       C  0.70182432  0.85669187  0.65288263     1.09000
C3293       C  0.54395831  0.83865230  0.60540820     1.08900
C3294       C  0.63911119  0.83726672  0.68552905     1.09000
C3295       C  0.60783157  0.82954332  0.55747867     1.08900
O3296       O  0.66101684  0.87458693  0.55984052    -0.80700
O3297       O  0.57885862  0.87047384  0.67687226    -0.80800
O3298       O  0.67890546  0.92086376  0.61872629    -0.80700
O3299       O  0.57939725  0.92506884  0.61565923    -0.80700
O3300       O  0.56492798  0.88536556  0.64696405    -0.80700
O3301       O  0.69475358  0.87462633  0.59896747    -0.80700
O3302       O  0.63242618  0.91844652  0.57129581    -0.80700
O3303       O  0.61884095  0.90291576  0.68922540    -0.80700
Co3304     Co  0.65676236  0.84521590  0.59797147     1.51500
Co3305     Co  0.59302694  0.84866187  0.63468582     1.51700
Co3306     Co  0.64711656  0.90473701  0.65137906     1.51600
Co3307     Co  0.59683353  0.89190515  0.58610020     1.51500
O3308       O  0.62681774  0.87475166  0.62057722    -1.42600
C3309       C  0.65253577  0.90364949  0.55412414     1.08900
C3310       C  0.59282802  0.88971296  0.69638406     1.09000
C3311       C  0.69867772  0.90473449  0.60276388     1.08900
C3312       C  0.56173852  0.91418894  0.63763177     1.08900
loop_ 
_geom_bond_atom_site_label_1 
_geom_bond_atom_site_label_2 
_geom_bond_distance 
_geom_bond_site_symmetry_2 
_ccdc_geom_bond_type 
O1            C9   1.285       .  A
O1          Co21   1.921       .  S
O2           C10   1.271       .  A
O2          Co22   2.026       .  S
O3           C11   1.263       .  A
O3          Co23   1.952       .  S
O4           C12   1.313       .  A
O4          Co24   2.092       .  S
O5           C11   1.264       .  A
O5          Co22   2.003       .  S
O6           C12   1.277       .  A
O6          Co21   2.003       .  S
O7           C10   1.298       .  A
O7          Co24   2.026       .  S
O8            C9   1.289       .  A
O8          Co23   2.036       .  S
C9          C250   1.453       .  S
C10         C114   1.457       .  S
C11         C225   1.456       .  S
C12         C141   1.476       .  S
O13          C26   1.299       .  A
O13         Co21   2.070       .  S
O14          C27   1.323       .  A
O14         Co22   2.150       .  S
O15          C28   1.260       .  A
O15         Co23   1.959       .  S
O16          C29   1.266       .  A
O16         Co24   2.013       .  S
O17          C29   1.284       .  A
O17         Co22   1.972       .  S
O18          C28   1.294       .  A
O18         Co21   2.076       .  S
O19          C26   1.257       .  A
O19         Co24   1.969       .  S
O20          C27   1.264       .  A
O20         Co23   1.944       .  S
Co21         O25   1.909       .  S
Co22         O25   2.013       .  S
Co23         O25   1.955       .  S
Co24         O25   2.003       .  S
C26         C154   1.469       .  S
C27         C292   1.475       .  S
C28         C163   1.465       .  S
C29         C287   1.431       .  S
O30          C38   1.277       .  A
O30         Co50   2.003       .  S
O31          C39   1.298       .  A
O31         Co51   2.055       .  S
O32          C40   1.268       .  A
O32         Co52   1.968       .  S
O33          C41   1.279       .  A
O33         Co53   1.982       .  S
O34          C40   1.292       .  A
O34         Co51   2.040       .  S
O35          C41   1.287       .  A
O35         Co50   2.017       .  S
O36          C39   1.282       .  A
O36         Co53   1.981       .  S
O37          C38   1.282       .  A
O37         Co52   1.993       .  S
C38         C259   1.474       .  S
C39         C199   1.473       .  S
C40         C214   1.495       .  S
C41         C194   1.476       .  S
O42          C55   1.267       .  A
O42         Co50   1.962       .  S
O43          C56   1.280       .  A
O43         Co51   1.986       .  S
O44          C57   1.275       .  A
O44         Co52   2.005       .  S
O45          C58   1.304       .  A
O45         Co53   2.069       .  S
O46          C58   1.283       .  A
O46         Co51   1.988       .  S
O47          C57   1.279       .  A
O47         Co50   1.985       .  S
O48          C55   1.296       .  A
O48         Co53   2.050       .  S
O49          C56   1.287       .  A
O49         Co52   2.019       .  S
Co50         O54   2.011       .  S
Co51         O54   1.921       .  S
Co52         O54   2.008       .  S
Co53         O54   1.922       .  S
C55         C276   1.499       .  S
C56         C125   1.481       .  S
C57         C305   1.472       .  S
C58         C105   1.481       .  S
O59          C67   1.259       .  A
O59         Co79   1.969       .  S
O60          C68   1.272       .  A
O60         Co80   2.011       .  S
O61          C69   1.279       .  A
O61         Co81   2.010       .  S
O62          C70   1.277       .  A
O62         Co82   1.985       .  S
O63          C69   1.288       .  A
O63         Co80   2.020       .  S
O64          C70   1.276       .  A
O64         Co79   1.994       .  S
O65          C68   1.269       .  A
O65         Co82   1.994       .  S
O66          C67   1.277       .  A
O66         Co81   2.024       .  S
C67         C243   1.472       .  S
C68         C319   1.481       .  S
C69         C232   1.492       .  S
C70         C312   1.470       .  S
O71          C84   1.256       .  A
O71         Co79   1.961       .  S
O72          C85   1.257       .  A
O72         Co80   1.954       .  S
O73          C86   1.277       .  A
O73         Co81   2.006       .  S
O74          C87   1.282       .  A
O74         Co82   2.002       .  S
O75          C87   1.288       .  A
O75         Co80   2.030       .  S
O76          C86   1.286       .  A
O76         Co79   2.031       .  S
O77          C84   1.286       .  A
O77         Co82   2.060       .  S
O78          C85   1.281       .  A
O78         Co81   2.054       .  S
Co79         O83   2.078       .  S
Co80         O83   2.080       .  S
Co81         O83   2.095       .  S
Co82         O83   2.093       .  S
C84          C98   1.506       .  S
C85         C181   1.498       .  S
C86         C132   1.490       .  S
C87         C172   1.491       .  S
C88          C96   1.501       .  S
C88          C89   1.438       .  A
C88         C921   1.433       .  A
C89         C134   1.539       .  S
C89          C90   1.452   1_554  A
C90         C143   1.514       .  S
C90         C505   1.447       .  A
C91         C116   1.536       .  S
C91         C504   1.447       .  A
C91         C920   1.438       .  A
C92         C123   1.504       .  S
C92         C919   1.437       .  A
C92         C507   1.436       .  A
C93         C521   1.519       .  S
C93         C916   1.433       .  A
C93         C506   1.436   1_554  A
C94         C384   1.489       .  S
C94          C95   1.390       .  A
C94         C927   1.389   1_545  A
C95         C924   1.414       .  A
C95         H100   1.075       .  S
C96          C97   1.424       .  A
C96         C923   1.415       .  A
C97          C98   1.407       .  A
C97         H101   1.078       .  S
C98          C99   1.419       .  A
C99         C922   1.390       .  A
C99         H102   1.075       .  S
C103        C383   1.490       .  S
C103        C108   1.407       .  A
C103        C518   1.399       .  A
C104        C105   1.407       .  A
C104        C517   1.399       .  A
C104        H109   1.083       .  S
C105        C106   1.399       .  A
C106        C107   1.413       .  A
C106        H110   1.076       .  S
C107        C507   1.519       .  S
C107        C522   1.426       .  A
C108        C521   1.426       .  A
C108        H111   1.074       .  S
C112        C355   1.479       .  S
C112        C117   1.413       .  A
C112        C941   1.383       .  A
C113        C114   1.380       .  A
C113        C940   1.379       .  A
C113        H118   1.085       .  S
C114        C115   1.410       .  A
C115        C116   1.416       .  A
C115        H119   1.073       .  S
C116        C945   1.426       .  A
C117        C944   1.425       .  A
C117        H120   1.074       .  S
C121        C353   1.481       .  S
C121        C122   1.395       .  A
C121        C126   1.385       .  A
C122        C123   1.419       .  A
C122        H127   1.073       .  S
C123        C124   1.425       .  A
C124        C125   1.403       .  A
C124        H128   1.079       .  S
C125        C126   1.394       .  A
C126        H129   1.072       .  S
C130        C413   1.477       .  S
C130        C131   1.387       .  A
C130        C135   1.408       .  A
C131        C132   1.380       .  A
C131        H136   1.084       .  S
C132        C133   1.420       .  A
C133        C134   1.435       .  A
C133        H137   1.076       .  S
C134        C135   1.423       .  A
C135        H138   1.076       .  S
C139        C411   1.459       .  S
C139        C144   1.396       .  A
C139        C554   1.379   1_554  A
C140        C141   1.379       .  A
C140        C553   1.379       .  A
C140        H145   1.077       .  S
C141        C142   1.417       .  A
C142        C557   1.430       .  A
C142        H146   1.079       .  S
C143        C144   1.411   1_556  A
C143        C556   1.430       .  A
C144        H147   1.076       .  S
C148        C165   1.505       .  S
C148        C153   1.438       .  A
C148       C1805   1.430   1_455  A
C149       C1848   1.495       .  S
C149        C150   1.425       .  A
C149       C1804   1.430       .  A
C150        C201   1.515       .  S
C150        C565   1.424       .  A
C151        C183   1.486       .  S
C151        C152   1.426       .  A
C151        C564   1.424   1_554  A
C152        C176   1.506       .  S
C152       C2223   1.437   1_554  A
C153        C156   1.525       .  S
C153       C2222   1.437   1_455  A
C154        C155   1.415       .  A
C154        C573   1.384       .  A
C155        C156   1.418       .  A
C155        H160   1.079       .  S
C156        C571   1.418       .  A
C157        C158   1.408       .  A
C157        C570   1.418       .  A
C157        H161   1.073       .  S
C158        C397   1.477       .  S
C158        C159   1.388       .  A
C159        C568   1.384   1_554  A
C159        H162   1.080       .  S
C163        C164   1.406       .  A
C163        C168   1.396       .  A
C164        C165   1.415       .  A
C164        H169   1.082       .  S
C165        C166   1.419       .  A
C166        C167   1.400       .  A
C166        H170   1.077       .  S
C167        C356   1.478       .  S
C167        C168   1.381       .  A
C168        H171   1.081       .  S
C172        C173   1.386       .  A
C172        C177   1.405       .  A
C173       C1830   1.405       .  A
C173        H178   1.062       .  S
C174        C395   1.474       .  S
C174        C175   1.406       .  A
C174       C1829   1.405   1_455  A
C175       C1832   1.417   1_455  A
C175        H179   1.078       .  S
C176        C177   1.424       .  A
C176       C1831   1.417       .  A
C177        H180   1.080       .  S
C181        C182   1.402       .  A
C181        C186   1.403       .  A
C182        C183   1.425       .  A
C182        H187   1.077       .  S
C183        C184   1.411       .  A
C184        C185   1.384       .  A
C184        H188   1.077       .  S
C185        C366   1.477       .  S
C185        C186   1.394       .  A
C186        H189   1.066       .  S
C190        C354   1.474       .  S
C190        C191   1.389       .  A
C190        C195   1.384   1_455  A
C191        C192   1.414   1_455  A
C191        H196   1.073       .  S
C192       C1805   1.495       .  S
C192       C1849   1.421       .  A
C193        C194   1.401       .  A
C193       C1848   1.421       .  A
C193        H197   1.079       .  S
C194       C1851   1.399       .  A
C195       C1850   1.399       .  A
C195        H198   1.074       .  S
C199        C200   1.401       .  A
C199        C204   1.401       .  A
C200        C201   1.415       .  A
C200        H205   1.077       .  S
C201        C616   1.421       .  A
C202        C203   1.401       .  A
C202        C615   1.421       .  A
C202        H206   1.073       .  S
C203        C367   1.474       .  S
C203        C618   1.389   1_554  A
C204        C617   1.389       .  A
C204        H207   1.084       .  S
C208        C263   1.498       .  S
C208        C209   1.422       .  A
C208        C213   1.430       .  A
C209        C218   1.503       .  S
C209        C210   1.418       .  A
C210        C252   1.492       .  S
C210        C211   1.432       .  A
C211        C227   1.518       .  S
C211        C212   1.440       .  A
C212        C245   1.507       .  S
C212        C213   1.436       .  A
C213        C236   1.512       .  S
C214        C215   1.412       .  A
C214        C219   1.407       .  A
C215        C216   1.381       .  A
C215        H220   1.077       .  S
C216        C339   1.474       .  S
C216        C217   1.391       .  A
C217        C218   1.414       .  A
C217        H221   1.077       .  S
C218        C219   1.424       .  A
C219        H222   1.078       .  S
C223        C396   1.483       .  S
C223        C224   1.389       .  A
C223        C228   1.417       .  A
C224        C225   1.374       .  A
C224        H229   1.072       .  S
C225        C226   1.396       .  A
C226        C227   1.410       .  A
C226        H230   1.075       .  S
C227        C228   1.430       .  A
C228        H231   1.079       .  S
C232        C233   1.390       .  A
C232        C237   1.393       .  A
C233        C234   1.420       .  A
C233        H238   1.073       .  S
C234        C385   1.515       .  S
C234        C235   1.414       .  A
C235        C236   1.430       .  A
C235        H239   1.080       .  S
C236        C237   1.416       .  A
C237        H240   1.074       .  S
C241        C394   1.444       .  S
C241        C242   1.386       .  A
C241        C246   1.400       .  A
C242        C243   1.387       .  A
C242        H247   1.084       .  S
C243        C244   1.403       .  A
C244        C245   1.415       .  A
C244        H248   1.072       .  S
C245        C246   1.403       .  A
C246        H249   1.075       .  S
C250        C251   1.402       .  A
C250        C255   1.389       .  A
C251        C252   1.419       .  A
C251        H256   1.083       .  S
C252        C253   1.415       .  A
C253        C254   1.393       .  A
C253        H257   1.077       .  S
C254        C337   1.462       .  S
C254        C255   1.373       .  A
C255        H258   1.080       .  S
C259        C260   1.375       .  A
C259        C264   1.396       .  A
C260        C261   1.394       .  A
C260        H265   1.077       .  S
C261        C382   1.476       .  S
C261        C262   1.401       .  A
C262        C263   1.421       .  A
C262        H266   1.080       .  S
C263        C264   1.420       .  A
C264        H267   1.076       .  S
C268        C285   1.492       .  S
C268        C269   1.433       .  A
C268       C1101   1.420       .  A
C269        C294   1.514       .  S
C269        C270   1.434       .  A
C270        C323   1.506       .  S
C270       C1927   1.432   1_455  A
C271        C314   1.506       .  S
C271       C1926   1.432       .  A
C271       C1100   1.426       .  A
C272        C303   1.498       .  S
C272       C1099   1.425       .  A
C272       C1929   1.419       .  A
C273        C278   1.495       .  S
C273       C1096   1.420   1_545  A
C273       C1928   1.419   1_455  A
C274        C338   1.471       .  S
C274        C275   1.385       .  A
C274        C279   1.387       .  A
C275       C1932   1.415   1_455  A
C275        H280   1.079   1_455  S
C276        C277   1.406       .  A
C276       C1931   1.415       .  A
C277       C1934   1.425       .  A
C277        H281   1.079       .  S
C278        C279   1.410       .  A
C278       C1933   1.425   1_455  A
C279        H282   1.077       .  S
C283        C336   1.460       .  S
C283        C284   1.401       .  A
C283       C1116   1.378   1_545  A
C284       C1113   1.417   1_545  A
C284        H289   1.076       .  S
C285        C286   1.403       .  A
C285       C1112   1.418       .  A
C286        C287   1.392       .  A
C286        H290   1.076       .  S
C287        C288   1.381       .  A
C288       C1111   1.378       .  A
C288        H291   1.083       .  S
C292        C293   1.400       .  A
C292        C297   1.397       .  A
C293        C294   1.409       .  A
C293        H298   1.072       .  S
C294        C295   1.407       .  A
C295        C296   1.409       .  A
C295        H299   1.076       .  S
C296        C412   1.476       .  S
C296        C297   1.398       .  A
C297        H300   1.081       .  S
C301        C368   1.477       .  S
C301        C302   1.400       .  A
C301        C306   1.396       .  A
C302        C303   1.419       .  A
C302        H307   1.078       .  S
C303        C304   1.420       .  A
C304        C305   1.395       .  A
C304        H308   1.076       .  S
C305        C306   1.373       .  A
C306        H309   1.078       .  S
C310        C365   1.486       .  S
C310        C315   1.407       .  A
C310       C1139   1.380   1_545  A
C311        C312   1.387       .  A
C311       C1138   1.381       .  A
C311        H316   1.072       .  S
C312        C313   1.394       .  A
C313        C314   1.416       .  A
C313        H317   1.078       .  S
C314       C1143   1.429       .  A
C315       C1142   1.429   1_545  A
C315        H318   1.077       .  S
C319        C324   1.395       .  A
C319       C1976   1.383       .  A
C320        C321   1.391       .  A
C320       C1975   1.382   1_455  A
C320        H325   1.051       .  S
C321        C414   1.485       .  S
C321        C322   1.408       .  A
C322        C323   1.430       .  A
C322        H326   1.082       .  S
C323       C1980   1.420   1_455  A
C324       C1979   1.420       .  A
C324        H327   1.075       .  S
O328        C336   1.255       .  A
O328       Co348   1.972       .  S
O329        C337   1.258       .  A
O329       Co349   1.982       .  S
O330        C338   1.278       .  A
O330       Co350   2.013       .  S
O331        C339   1.281       .  A
O331       Co351   2.022       .  S
O332        C338   1.270       .  A
O332       Co349   1.984       .  S
O333        C339   1.268       .  A
O333       Co348   1.983       .  S
O334        C337   1.269       .  A
O334       Co351   1.975       .  S
O335        C336   1.270       .  A
O335       Co350   1.991       .  S
O340        C353   1.263       .  A
O340       Co348   1.983       .  S
O341        C354   1.264       .  A
O341       Co349   1.988       .  S
O342        C355   1.268       .  A
O342       Co350   1.981       .  S
O343        C356   1.272       .  A
O343       Co351   1.987       .  S
O344        C356   1.284       .  A
O344       Co349   2.029       .  S
O345        C355   1.286       .  A
O345       Co348   2.043       .  S
O346        C353   1.269       .  A
O346       Co351   2.012       .  S
O347        C354   1.267       .  A
O347       Co350   2.002       .  S
Co348       O352   2.083       .  S
Co349       O352   2.090       .  S
Co350       O352   2.081       .  S
Co351       O352   2.081       .  S
O357        C365   1.276       .  A
O357       Co377   2.005       .  S
O358        C366   1.270       .  A
O358       Co378   1.964       .  S
O359        C367   1.269       .  A
O359       Co379   1.988       .  S
O360        C368   1.278       .  A
O360       Co380   2.013       .  S
O361        C367   1.276       .  A
O361       Co378   2.010       .  S
O362        C368   1.268       .  A
O362       Co377   1.957       .  S
O363        C366   1.281       .  A
O363       Co380   2.005       .  S
O364        C365   1.274       .  A
O364       Co379   2.013       .  S
O369        C382   1.280       .  A
O369       Co377   2.011       .  S
O370        C383   1.282       .  A
O370       Co378   2.010       .  S
O371        C384   1.272       .  A
O371       Co379   2.001       .  S
O372        C385   1.265       .  A
O372       Co380   1.986       .  S
O373        C385   1.291       .  A
O373       Co378   2.063       .  S
O374        C384   1.277       .  A
O374       Co377   2.010       .  S
O375        C382   1.273       .  A
O375       Co380   1.973       .  S
O376        C383   1.278       .  A
O376       Co379   2.011       .  S
Co377       O381   2.083       .  S
Co378       O381   2.083       .  S
Co379       O381   2.084       .  S
Co380       O381   2.098       .  S
O386        C394   1.288       .  A
O386       Co406   2.050       .  S
O387        C395   1.290       .  A
O387       Co407   1.934       .  S
O388        C396   1.302       .  A
O388       Co408   2.064       .  S
O389        C397   1.268       .  A
O389       Co409   2.003       .  S
O390        C396   1.284       .  A
O390       Co407   2.020       .  S
O391        C397   1.258       .  A
O391       Co406   1.997       .  S
O392        C395   1.287       .  A
O392       Co409   2.039       .  S
O393        C394   1.293       .  A
O393       Co408   2.052       .  S
O398        C411   1.294       .  A
O398       Co406   2.035       .  S
O399        C412   1.300       .  A
O399       Co407   2.094       .  S
O400        C413   1.266       .  A
O400       Co408   2.033       .  S
O401        C414   1.273       .  A
O401       Co409   2.014       .  S
O402        C414   1.280       .  A
O402       Co407   2.009       .  S
O403        C413   1.286       .  A
O403       Co406   2.022       .  S
O404        C411   1.277       .  A
O404       Co409   1.970       .  S
O405        C412   1.263       .  A
O405       Co408   1.994       .  S
Co406       O410   2.009       .  S
Co407       O410   1.892       .  S
Co408       O410   2.012       .  S
Co409       O410   2.067       .  S
O415        C423   1.285       .  A
O415       Co435   1.921       .  S
O416        C424   1.271       .  A
O416       Co436   2.026       .  S
O417        C425   1.263       .  A
O417       Co437   1.952       .  S
O418        C426   1.313       .  A
O418       Co438   2.092       .  S
O419        C425   1.264       .  A
O419       Co436   2.003       .  S
O420        C426   1.277       .  A
O420       Co435   2.003       .  S
O421        C424   1.298       .  A
O421       Co438   2.026       .  S
O422        C423   1.289       .  A
O422       Co437   2.036       .  S
C423        C664   1.453       .  S
C424        C528   1.457       .  S
C425        C639   1.456       .  S
C426        C555   1.476       .  S
O427        C440   1.299       .  A
O427       Co435   2.070       .  S
O428        C441   1.323       .  A
O428       Co436   2.150       .  S
O429        C442   1.260       .  A
O429       Co437   1.959       .  S
O430        C443   1.266       .  A
O430       Co438   2.013       .  S
O431        C443   1.284       .  A
O431       Co436   1.972       .  S
O432        C442   1.294       .  A
O432       Co435   2.076       .  S
O433        C440   1.257       .  A
O433       Co438   1.969       .  S
O434        C441   1.264       .  A
O434       Co437   1.944       .  S
Co435       O439   1.909       .  S
Co436       O439   2.013       .  S
Co437       O439   1.955       .  S
Co438       O439   2.003       .  S
C440        C568   1.469       .  S
C441        C706   1.475       .  S
C442        C577   1.465       .  S
C443        C701   1.431       .  S
O444        C452   1.277       .  A
O444       Co464   2.003       .  S
O445        C453   1.298       .  A
O445       Co465   2.055       .  S
O446        C454   1.268       .  A
O446       Co466   1.968       .  S
O447        C455   1.279       .  A
O447       Co467   1.982       .  S
O448        C454   1.292       .  A
O448       Co465   2.040       .  S
O449        C455   1.287       .  A
O449       Co464   2.017       .  S
O450        C453   1.282       .  A
O450       Co467   1.981       .  S
O451        C452   1.282       .  A
O451       Co466   1.993       .  S
C452        C673   1.474       .  S
C453        C613   1.473       .  S
C454        C628   1.495       .  S
C455        C608   1.476       .  S
O456        C469   1.267       .  A
O456       Co464   1.962       .  S
O457        C470   1.280       .  A
O457       Co465   1.986       .  S
O458        C471   1.275       .  A
O458       Co466   2.005       .  S
O459        C472   1.304       .  A
O459       Co467   2.069       .  S
O460        C472   1.283       .  A
O460       Co465   1.988       .  S
O461        C471   1.279       .  A
O461       Co464   1.985       .  S
O462        C469   1.296       .  A
O462       Co467   2.050       .  S
O463        C470   1.287       .  A
O463       Co466   2.019       .  S
Co464       O468   2.011       .  S
Co465       O468   1.921       .  S
Co466       O468   2.008       .  S
Co467       O468   1.922       .  S
C469        C690   1.499       .  S
C470        C539   1.481       .  S
C471        C719   1.472       .  S
C472        C519   1.481       .  S
O473        C481   1.259       .  A
O473       Co493   1.969       .  S
O474        C482   1.272       .  A
O474       Co494   2.011       .  S
O475        C483   1.279       .  A
O475       Co495   2.010       .  S
O476        C484   1.277       .  A
O476       Co496   1.985       .  S
O477        C483   1.288       .  A
O477       Co494   2.020       .  S
O478        C484   1.276       .  A
O478       Co493   1.994       .  S
O479        C482   1.269       .  A
O479       Co496   1.994       .  S
O480        C481   1.277       .  A
O480       Co495   2.024       .  S
C481        C657   1.471       .  S
C482        C733   1.481       .  S
C483        C646   1.492       .  S
C484        C726   1.470       .  S
O485        C498   1.256       .  A
O485       Co493   1.961       .  S
O486        C499   1.257       .  A
O486       Co494   1.954       .  S
O487        C500   1.277       .  A
O487       Co495   2.006       .  S
O488        C501   1.282       .  A
O488       Co496   2.001       .  S
O489        C501   1.288       .  A
O489       Co494   2.030       .  S
O490        C500   1.286       .  A
O490       Co493   2.031       .  S
O491        C498   1.286       .  A
O491       Co496   2.060       .  S
O492        C499   1.281       .  A
O492       Co495   2.054       .  S
Co493       O497   2.078       .  S
Co494       O497   2.080       .  S
Co495       O497   2.095       .  S
Co496       O497   2.093       .  S
C498        C512   1.506       .  S
C499        C595   1.498       .  S
C500        C546   1.490       .  S
C501        C586   1.491       .  S
C502        C510   1.501       .  S
C502        C503   1.438       .  A
C502       C1335   1.433       .  A
C503        C548   1.539       .  S
C503        C504   1.452       .  A
C504        C557   1.514       .  S
C505        C530   1.536       .  S
C505       C1334   1.438       .  A
C506        C537   1.504       .  S
C506       C1333   1.437       .  A
C507       C1330   1.433       .  A
C508        C798   1.489       .  S
C508        C509   1.390       .  A
C508       C1341   1.389   1_545  A
C509       C1338   1.414       .  A
C509        H514   1.075       .  S
C510       C1337   1.415       .  A
C510        C511   1.424       .  A
C511        C512   1.407       .  A
C511        H515   1.078       .  S
C512        C513   1.419       .  A
C513       C1336   1.390       .  A
C513        H516   1.075       .  S
C517        C797   1.490       .  S
C517        C522   1.407       .  A
C518        C519   1.407   1_554  A
C518        H523   1.083   1_554  S
C519        C520   1.399       .  A
C520        C521   1.413   1_556  A
C520        H524   1.076       .  S
C522        H525   1.074       .  S
C526        C769   1.479       .  S
C526       C1355   1.383       .  A
C526        C531   1.413       .  A
C527       C1354   1.379       .  A
C527        C528   1.380       .  A
C527        H532   1.085       .  S
C528        C529   1.410       .  A
C529        C530   1.416       .  A
C529        H533   1.073       .  S
C530       C1359   1.426       .  A
C531       C1358   1.425       .  A
C531        H534   1.074       .  S
C535        C767   1.481       .  S
C535        C536   1.395       .  A
C535        C540   1.385       .  A
C536        C537   1.419       .  A
C536        H541   1.073       .  S
C537        C538   1.425       .  A
C538        C539   1.403       .  A
C538        H542   1.079       .  S
C539        C540   1.394       .  A
C540        H543   1.072       .  S
C544        C827   1.477       .  S
C544        C545   1.387       .  A
C544        C549   1.408       .  A
C545        C546   1.380       .  A
C545        H550   1.084       .  S
C546        C547   1.420       .  A
C547        C548   1.435       .  A
C547        H551   1.076       .  S
C548        C549   1.423       .  A
C549        H552   1.076       .  S
C553        C825   1.459       .  S
C553        C558   1.396       .  A
C554        C555   1.379       .  A
C554        H559   1.077       .  S
C555        C556   1.417       .  A
C556        H560   1.079       .  S
C557        C558   1.411       .  A
C558        H561   1.076       .  S
C562        C579   1.505       .  S
C562       C2219   1.430   1_455  A
C562        C567   1.438       .  A
C563       C2262   1.495       .  S
C563       C2218   1.430       .  A
C563        C564   1.425       .  A
C564        C615   1.515   1_556  S
C565        C597   1.486       .  S
C565        C566   1.426       .  A
C566        C590   1.506       .  S
C566       C1809   1.437       .  A
C567        C570   1.525   1_556  S
C567       C1808   1.437   1_456  A
C568        C569   1.415       .  A
C569        C570   1.418   1_556  A
C569        H574   1.079       .  S
C571        C572   1.408       .  A
C571        H575   1.073       .  S
C572        C811   1.477       .  S
C572        C573   1.388       .  A
C573        H576   1.080       .  S
C577        C578   1.406       .  A
C577        C582   1.396       .  A
C578        C579   1.415       .  A
C578        H583   1.082       .  S
C579        C580   1.419       .  A
C580        C581   1.400       .  A
C580        H584   1.077       .  S
C581        C770   1.478       .  S
C581        C582   1.381       .  A
C582        H585   1.081       .  S
C586        C587   1.386       .  A
C586        C591   1.405       .  A
C587       C2244   1.405       .  A
C587        H592   1.062       .  S
C588        C809   1.474       .  S
C588       C2243   1.405   1_455  A
C588        C589   1.406       .  A
C589       C2246   1.417   1_455  A
C589        H593   1.078       .  S
C590       C2245   1.417       .  A
C590        C591   1.424       .  A
C591        H594   1.080       .  S
C595        C596   1.402       .  A
C595        C600   1.403       .  A
C596        C597   1.425       .  A
C596        H601   1.077       .  S
C597        C598   1.411       .  A
C598        C599   1.384       .  A
C598        H602   1.077       .  S
C599        C780   1.477       .  S
C599        C600   1.394       .  A
C600        H603   1.066       .  S
C604        C768   1.474       .  S
C604        C605   1.389       .  A
C604        C609   1.384   1_455  A
C605        C606   1.414   1_455  A
C605        H610   1.073       .  S
C606       C2219   1.495       .  S
C606       C2263   1.421       .  A
C607       C2262   1.421       .  A
C607        C608   1.401       .  A
C607        H611   1.079       .  S
C608       C2265   1.399       .  A
C609       C2264   1.399       .  A
C609        H612   1.074       .  S
C613        C614   1.401       .  A
C613        C618   1.400       .  A
C614        C615   1.415   1_556  A
C614        H619   1.077       .  S
C616        C617   1.401       .  A
C616        H620   1.073       .  S
C617        C781   1.474       .  S
C618        H621   1.084       .  S
C622        C677   1.498       .  S
C622        C623   1.422       .  A
C622        C627   1.430       .  A
C623        C632   1.503       .  S
C623        C624   1.418       .  A
C624        C666   1.492       .  S
C624        C625   1.432       .  A
C625        C641   1.518       .  S
C625        C626   1.440       .  A
C626        C659   1.507       .  S
C626        C627   1.436       .  A
C627        C650   1.512       .  S
C628        C629   1.412       .  A
C628        C633   1.407       .  A
C629        C630   1.381       .  A
C629        H634   1.077       .  S
C630        C753   1.474       .  S
C630        C631   1.391       .  A
C631        C632   1.414       .  A
C631        H635   1.077       .  S
C632        C633   1.424       .  A
C633        H636   1.078       .  S
C637        C810   1.483       .  S
C637        C638   1.389       .  A
C637        C642   1.417       .  A
C638        C639   1.374       .  A
C638        H643   1.072       .  S
C639        C640   1.396       .  A
C640        C641   1.410       .  A
C640        H644   1.075       .  S
C641        C642   1.430       .  A
C642        H645   1.079       .  S
C646        C647   1.390       .  A
C646        C651   1.393       .  A
C647        C648   1.420       .  A
C647        H652   1.073       .  S
C648        C799   1.515       .  S
C648        C649   1.414       .  A
C649        C650   1.430       .  A
C649        H653   1.080       .  S
C650        C651   1.416       .  A
C651        H654   1.074       .  S
C655        C808   1.444       .  S
C655        C656   1.386       .  A
C655        C660   1.400       .  A
C656        C657   1.387       .  A
C656        H661   1.084       .  S
C657        C658   1.403       .  A
C658        C659   1.415       .  A
C658        H662   1.072       .  S
C659        C660   1.403       .  A
C660        H663   1.075       .  S
C664        C665   1.402       .  A
C664        C669   1.389       .  A
C665        C666   1.420       .  A
C665        H670   1.083       .  S
C666        C667   1.415       .  A
C667        C668   1.393       .  A
C667        H671   1.077       .  S
C668        C751   1.462       .  S
C668        C669   1.373       .  A
C669        H672   1.080       .  S
C673        C674   1.375       .  A
C673        C678   1.396       .  A
C674        C675   1.394       .  A
C674        H679   1.077       .  S
C675        C796   1.476       .  S
C675        C676   1.401       .  A
C676        C677   1.421       .  A
C676        H680   1.080       .  S
C677        C678   1.420       .  A
C678        H681   1.076       .  S
C682        C699   1.492       .  S
C682        C683   1.433       .  A
C682       C1515   1.420       .  A
C683        C708   1.514       .  S
C683        C684   1.434       .  A
C684        C737   1.506       .  S
C684       C2341   1.432   1_455  A
C685        C728   1.506       .  S
C685       C2340   1.432       .  A
C685       C1514   1.426       .  A
C686        C717   1.498       .  S
C686       C1513   1.425       .  A
C686       C2343   1.419       .  A
C687        C692   1.495       .  S
C687       C1510   1.420   1_545  A
C687       C2342   1.419   1_455  A
C688        C752   1.471       .  S
C688        C689   1.385       .  A
C688        C693   1.387       .  A
C689       C2346   1.415   1_455  A
C689        H694   1.079   1_455  S
C690       C2345   1.415       .  A
C690        C691   1.406       .  A
C691       C2348   1.425       .  A
C691        H695   1.079       .  S
C692       C2347   1.425   1_455  A
C692        C693   1.410       .  A
C693        H696   1.077       .  S
C697        C750   1.460       .  S
C697        C698   1.401       .  A
C697       C1530   1.378   1_545  A
C698       C1527   1.417   1_545  A
C698        H703   1.076       .  S
C699       C1526   1.418       .  A
C699        C700   1.403       .  A
C700        C701   1.392       .  A
C700        H704   1.076       .  S
C701        C702   1.381       .  A
C702       C1525   1.378       .  A
C702        H705   1.083       .  S
C706        C707   1.400       .  A
C706        C711   1.397       .  A
C707        C708   1.409       .  A
C707        H712   1.072       .  S
C708        C709   1.407       .  A
C709        C710   1.409       .  A
C709        H713   1.076       .  S
C710        C826   1.476       .  S
C710        C711   1.398       .  A
C711        H714   1.081       .  S
C715        C782   1.477       .  S
C715        C716   1.400       .  A
C715        C720   1.396       .  A
C716        C717   1.419       .  A
C716        H721   1.078       .  S
C717        C718   1.420       .  A
C718        C719   1.395       .  A
C718        H722   1.076       .  S
C719        C720   1.373       .  A
C720        H723   1.078       .  S
C724        C779   1.486       .  S
C724       C1553   1.380   1_545  A
C724        C729   1.407       .  A
C725       C1552   1.381       .  A
C725        C726   1.387       .  A
C725        H730   1.072       .  S
C726        C727   1.394       .  A
C727        C728   1.416       .  A
C727        H731   1.078       .  S
C728       C1557   1.429       .  A
C729       C1556   1.429   1_545  A
C729        H732   1.077       .  S
C733       C2390   1.383       .  A
C733        C738   1.394       .  A
C734       C2389   1.382   1_455  A
C734        C735   1.391       .  A
C734        H739   1.051       .  S
C735        C828   1.485       .  S
C735        C736   1.408       .  A
C736        C737   1.430       .  A
C736        H740   1.082       .  S
C737       C2394   1.420   1_455  A
C738       C2393   1.420       .  A
C738        H741   1.075       .  S
O742        C750   1.255       .  A
O742       Co762   1.972       .  S
O743        C751   1.258       .  A
O743       Co763   1.982       .  S
O744        C752   1.278       .  A
O744       Co764   2.013       .  S
O745        C753   1.281       .  A
O745       Co765   2.022       .  S
O746        C752   1.270       .  A
O746       Co763   1.984       .  S
O747        C753   1.268       .  A
O747       Co762   1.983       .  S
O748        C751   1.269       .  A
O748       Co765   1.975       .  S
O749        C750   1.270       .  A
O749       Co764   1.991       .  S
O754        C767   1.263       .  A
O754       Co762   1.983       .  S
O755        C768   1.264       .  A
O755       Co763   1.988       .  S
O756        C769   1.268       .  A
O756       Co764   1.981       .  S
O757        C770   1.272       .  A
O757       Co765   1.987       .  S
O758        C770   1.284       .  A
O758       Co763   2.029       .  S
O759        C769   1.286       .  A
O759       Co762   2.043       .  S
O760        C767   1.269       .  A
O760       Co765   2.012       .  S
O761        C768   1.267       .  A
O761       Co764   2.002       .  S
Co762       O766   2.083       .  S
Co763       O766   2.090       .  S
Co764       O766   2.081       .  S
Co765       O766   2.081       .  S
O771        C779   1.276       .  A
O771       Co791   2.005       .  S
O772        C780   1.270       .  A
O772       Co792   1.964       .  S
O773        C781   1.269       .  A
O773       Co793   1.988       .  S
O774        C782   1.278       .  A
O774       Co794   2.013       .  S
O775        C781   1.276       .  A
O775       Co792   2.010       .  S
O776        C782   1.268       .  A
O776       Co791   1.957       .  S
O777        C780   1.281       .  A
O777       Co794   2.005       .  S
O778        C779   1.274       .  A
O778       Co793   2.013       .  S
O783        C796   1.280       .  A
O783       Co791   2.010       .  S
O784        C797   1.282       .  A
O784       Co792   2.010       .  S
O785        C798   1.272       .  A
O785       Co793   2.001       .  S
O786        C799   1.265       .  A
O786       Co794   1.986       .  S
O787        C799   1.291       .  A
O787       Co792   2.063       .  S
O788        C798   1.277       .  A
O788       Co791   2.010       .  S
O789        C796   1.273       .  A
O789       Co794   1.973       .  S
O790        C797   1.278       .  A
O790       Co793   2.011       .  S
Co791       O795   2.083       .  S
Co792       O795   2.083       .  S
Co793       O795   2.085       .  S
Co794       O795   2.098       .  S
O800        C808   1.288       .  A
O800       Co820   2.050       .  S
O801        C809   1.290       .  A
O801       Co821   1.934       .  S
O802        C810   1.302       .  A
O802       Co822   2.064       .  S
O803        C811   1.268       .  A
O803       Co823   2.003       .  S
O804        C810   1.284       .  A
O804       Co821   2.020       .  S
O805        C811   1.258       .  A
O805       Co820   1.997       .  S
O806        C809   1.287       .  A
O806       Co823   2.039       .  S
O807        C808   1.293       .  A
O807       Co822   2.052       .  S
O812        C825   1.294       .  A
O812       Co820   2.035       .  S
O813        C826   1.300       .  A
O813       Co821   2.094       .  S
O814        C827   1.266       .  A
O814       Co822   2.033       .  S
O815        C828   1.273       .  A
O815       Co823   2.014       .  S
O816        C828   1.280       .  A
O816       Co821   2.009       .  S
O817        C827   1.286       .  A
O817       Co820   2.022       .  S
O818        C825   1.277       .  A
O818       Co823   1.970       .  S
O819        C826   1.263       .  A
O819       Co822   1.994       .  S
Co820       O824   2.009       .  S
Co821       O824   1.892       .  S
Co822       O824   2.012       .  S
Co823       O824   2.067       .  S
O829        C837   1.269       .  A
O829       Co849   1.974       .  S
O830        C838   1.274       .  A
O830       Co850   2.034       .  S
O831        C839   1.265       .  A
O831       Co851   1.964       .  S
O832        C840   1.322       .  A
O832       Co852   2.129       .  S
O833        C839   1.261       .  A
O833       Co850   1.990       .  S
O834        C840   1.268       .  A
O834       Co849   1.945       .  S
O835        C838   1.299       .  A
O835       Co852   2.026       .  S
O836        C837   1.274       .  A
O836       Co851   1.971       .  S
C837       C1078   1.453       .  S
C838        C942   1.466       .  S
C839       C1053   1.453       .  S
C840        C969   1.461       .  S
O841        C854   1.267       .  A
O841       Co849   1.959       .  S
O842        C855   1.328       .  A
O842       Co850   2.168       .  S
O843        C856   1.270       .  A
O843       Co851   1.976       .  S
O844        C857   1.266       .  A
O844       Co852   2.011       .  S
O845        C857   1.286       .  A
O845       Co850   1.982       .  S
O846        C856   1.280       .  A
O846       Co849   2.014       .  S
O847        C854   1.265       .  A
O847       Co852   2.002       .  S
O848        C855   1.264       .  A
O848       Co851   1.931       .  S
Co849       O853   1.948       .  S
Co850       O853   2.001       .  S
Co851       O853   1.924       .  S
Co852       O853   2.010       .  S
C854        C982   1.458       .  S
C855       C1120   1.474       .  S
C856        C991   1.466       .  S
C857       C1115   1.434       .  S
O858        C866   1.277       .  A
O858       Co878   2.003       .  S
O859        C867   1.298       .  A
O859       Co879   2.055       .  S
O860        C868   1.268       .  A
O860       Co880   1.969       .  S
O861        C869   1.279       .  A
O861       Co881   1.982       .  S
O862        C868   1.292       .  A
O862       Co879   2.041       .  S
O863        C869   1.287       .  A
O863       Co878   2.016       .  S
O864        C867   1.282       .  A
O864       Co881   1.980       .  S
O865        C866   1.282       .  A
O865       Co880   1.994       .  S
C866       C1087   1.474       .  S
C867       C1027   1.473       .  S
C868       C1042   1.496       .  S
C869       C1022   1.476       .  S
O870        C883   1.267       .  A
O870       Co878   1.963       .  S
O871        C884   1.280       .  A
O871       Co879   1.986       .  S
O872        C885   1.275       .  A
O872       Co880   2.005       .  S
O873        C886   1.304       .  A
O873       Co881   2.070       .  S
O874        C886   1.283       .  A
O874       Co879   1.988       .  S
O875        C885   1.279       .  A
O875       Co878   1.985       .  S
O876        C883   1.296       .  A
O876       Co881   2.051       .  S
O877        C884   1.286       .  A
O877       Co880   2.019       .  S
Co878       O882   2.012       .  S
Co879       O882   1.922       .  S
Co880       O882   2.008       .  S
Co881       O882   1.922       .  S
C883       C1104   1.500       .  S
C884        C953   1.481       .  S
C885       C1133   1.472       .  S
C886        C933   1.483       .  S
O887        C895   1.259       .  A
O887       Co907   1.968       .  S
O888        C896   1.272       .  A
O888       Co908   2.011       .  S
O889        C897   1.278       .  A
O889       Co909   2.009       .  S
O890        C898   1.277       .  A
O890       Co910   1.983       .  S
O891        C897   1.288       .  A
O891       Co908   2.020       .  S
O892        C898   1.276       .  A
O892       Co907   1.995       .  S
O893        C896   1.269       .  A
O893       Co910   1.994       .  S
O894        C895   1.277       .  A
O894       Co909   2.024       .  S
C895       C1071   1.471       .  S
C896       C1147   1.481       .  S
C897       C1060   1.491       .  S
C898       C1140   1.469       .  S
O899        C912   1.256       .  A
O899       Co907   1.959       .  S
O900        C913   1.257       .  A
O900       Co908   1.953       .  S
O901        C914   1.277       .  A
O901       Co909   2.007       .  S
O902        C915   1.282       .  A
O902       Co910   2.000       .  S
O903        C915   1.288       .  A
O903       Co908   2.030       .  S
O904        C914   1.285       .  A
O904       Co907   2.031       .  S
O905        C912   1.286       .  A
O905       Co910   2.059       .  S
O906        C913   1.281       .  A
O906       Co909   2.054       .  S
Co907       O911   2.078       .  S
Co908       O911   2.080       .  S
Co909       O911   2.095       .  S
Co910       O911   2.093       .  S
C912        C926   1.506       .  S
C913       C1009   1.497       .  S
C914        C960   1.490       .  S
C915       C1000   1.490       .  S
C916        C924   1.498       .  S
C916        C917   1.434   1_545  A
C917        C962   1.540       .  S
C917        C918   1.448   1_554  A
C918        C971   1.502       .  S
C918       C1333   1.445   1_565  A
C919        C944   1.539       .  S
C919       C1332   1.445   1_545  A
C920        C951   1.505       .  S
C920       C1335   1.436       .  A
C921       C1349   1.522       .  S
C921       C1334   1.436   1_554  A
C922       C1212   1.491       .  S
C922        C923   1.391       .  A
C923        H928   1.075       .  S
C924        C925   1.424   1_545  A
C925        C926   1.407       .  A
C925        H929   1.078       .  S
C926        C927   1.419       .  A
C927        H930   1.075       .  S
C931       C1211   1.491       .  S
C931       C1346   1.398       .  A
C931        C936   1.408       .  A
C932       C1345   1.399       .  A
C932        C933   1.407       .  A
C932        H937   1.083       .  S
C933        C934   1.400       .  A
C934        C935   1.414       .  A
C934        H938   1.076       .  S
C935       C1335   1.522       .  S
C935       C1350   1.427       .  A
C936       C1349   1.427       .  A
C936        H939   1.074       .  S
C940       C1183   1.477       .  S
C940        C945   1.413       .  A
C941        C942   1.383   1_545  A
C941        H946   1.084       .  S
C942        C943   1.412       .  A
C943        C944   1.419   1_565  A
C943        H947   1.073       .  S
C945        H948   1.074       .  S
C949       C1181   1.480       .  S
C949        C950   1.395       .  A
C949        C954   1.384       .  A
C950        C951   1.419       .  A
C950        H955   1.073       .  S
C951        C952   1.425       .  A
C952        C953   1.404       .  A
C952        H956   1.079       .  S
C953        C954   1.393       .  A
C954        H957   1.072       .  S
C958       C1241   1.478       .  S
C958        C959   1.387       .  A
C958        C963   1.408       .  A
C959        C960   1.380       .  A
C959        H964   1.084       .  S
C960        C961   1.420       .  A
C961        C962   1.436       .  A
C961        H965   1.076       .  S
C962        C963   1.423       .  A
C963        H966   1.076       .  S
C967       C1239   1.458       .  S
C967       C1382   1.377   1_554  A
C967        C972   1.398       .  A
C968       C1381   1.377       .  A
C968        C969   1.378       .  A
C968        H973   1.079       .  S
C969        C970   1.406       .  A
C970       C1385   1.420       .  A
C970        H974   1.079       .  S
C971       C1384   1.420       .  A
C971        C972   1.413   1_556  A
C972        H975   1.076       .  S
C976        C993   1.506       .  S
C976       C2633   1.430   1_455  A
C976        C981   1.438       .  A
C977       C2676   1.496       .  S
C977       C2632   1.430       .  A
C977        C978   1.425       .  A
C978       C1029   1.513       .  S
C978       C1393   1.423       .  A
C979       C1011   1.482       .  S
C979       C1392   1.423   1_554  A
C979        C980   1.422       .  A
C980       C1004   1.507       .  S
C980       C3051   1.432   1_554  A
C981        C984   1.516       .  S
C981       C3050   1.432   1_455  A
C982        C983   1.410       .  A
C982       C1401   1.384       .  A
C983        C984   1.414       .  A
C983        H988   1.079       .  S
C984       C1399   1.421       .  A
C985       C1398   1.421       .  A
C985        C986   1.408       .  A
C985        H989   1.074       .  S
C986       C1225   1.475       .  S
C986        C987   1.379       .  A
C987       C1396   1.384   1_554  A
C987        H990   1.082       .  S
C991        C992   1.407       .  A
C991        C996   1.396       .  A
C992        C993   1.416       .  A
C992        H997   1.082       .  S
C993        C994   1.420       .  A
C994        C995   1.400       .  A
C994        H998   1.077       .  S
C995       C1184   1.476       .  S
C995        C996   1.376       .  A
C996        H999   1.080       .  S
C1000      C1001   1.386       .  A
C1000      C1005   1.404       .  A
C1001      C2658   1.406       .  A
C1001      H1006   1.057       .  S
C1002      C1223   1.476       .  S
C1002      C2657   1.405   1_455  A
C1002      C1003   1.406       .  A
C1003      C2660   1.418   1_455  A
C1003      H1007   1.078       .  S
C1004      C2659   1.418       .  A
C1004      C1005   1.423       .  A
C1005      H1008   1.080       .  S
C1009      C1010   1.401       .  A
C1009      C1014   1.403       .  A
C1010      C1011   1.424       .  A
C1010      H1015   1.077       .  S
C1011      C1012   1.410       .  A
C1012      C1013   1.382       .  A
C1012      H1016   1.077       .  S
C1013      C1194   1.476       .  S
C1013      C1014   1.394       .  A
C1014      H1017   1.068       .  S
C1018      C1182   1.474       .  S
C1018      C1019   1.389       .  A
C1018      C1023   1.383   1_455  A
C1019      C1020   1.414   1_455  A
C1019      H1024   1.072       .  S
C1020      C2633   1.496       .  S
C1020      C2677   1.421       .  A
C1021      C2676   1.421       .  A
C1021      C1022   1.401       .  A
C1021      H1025   1.079       .  S
C1022      C2679   1.399       .  A
C1023      C2678   1.399       .  A
C1023      H1026   1.074       .  S
C1027      C1028   1.400       .  A
C1027      C1032   1.401       .  A
C1028      C1029   1.414       .  A
C1028      H1033   1.077       .  S
C1029      C1444   1.420       .  A
C1030      C1443   1.420       .  A
C1030      C1031   1.401       .  A
C1030      H1034   1.073       .  S
C1031      C1195   1.474       .  S
C1031      C1446   1.389   1_554  A
C1032      C1445   1.389       .  A
C1032      H1035   1.084       .  S
C1036      C1091   1.495       .  S
C1036      C1037   1.419       .  A
C1036      C1041   1.430       .  A
C1037      C1046   1.506       .  S
C1037      C1038   1.416       .  A
C1038      C1080   1.482       .  S
C1038      C1039   1.430       .  A
C1039      C1055   1.520       .  S
C1039      C1040   1.436       .  A
C1040      C1073   1.505       .  S
C1040      C1041   1.435       .  A
C1041      C1064   1.508       .  S
C1042      C1043   1.411       .  A
C1042      C1047   1.407       .  A
C1043      C1044   1.380       .  A
C1043      H1048   1.077       .  S
C1044      C1167   1.475       .  S
C1044      C1045   1.391       .  A
C1045      C1046   1.414       .  A
C1045      H1049   1.077       .  S
C1046      C1047   1.425       .  A
C1047      H1050   1.078       .  S
C1051      C1224   1.480       .  S
C1051      C1052   1.386       .  A
C1051      C1056   1.417       .  A
C1052      C1053   1.370       .  A
C1052      H1057   1.071       .  S
C1053      C1054   1.395       .  A
C1054      C1055   1.411       .  A
C1054      H1058   1.073       .  S
C1055      C1056   1.430       .  A
C1056      H1059   1.079       .  S
C1060      C1061   1.391       .  A
C1060      C1065   1.392       .  A
C1061      C1062   1.421       .  A
C1061      H1066   1.074       .  S
C1062      C1213   1.515       .  S
C1062      C1063   1.414       .  A
C1063      C1064   1.429       .  A
C1063      H1067   1.080       .  S
C1064      C1065   1.415       .  A
C1065      H1068   1.074       .  S
C1069      C1222   1.443       .  S
C1069      C1070   1.386       .  A
C1069      C1074   1.400       .  A
C1070      C1071   1.388       .  A
C1070      H1075   1.084       .  S
C1071      C1072   1.403       .  A
C1072      C1073   1.414       .  A
C1072      H1076   1.072       .  S
C1073      C1074   1.402       .  A
C1074      H1077   1.075       .  S
C1078      C1079   1.393       .  A
C1078      C1083   1.388       .  A
C1079      C1080   1.414       .  A
C1079      H1084   1.082       .  S
C1080      C1081   1.416       .  A
C1081      C1082   1.392       .  A
C1081      H1085   1.076       .  S
C1082      C1165   1.460       .  S
C1082      C1083   1.372       .  A
C1083      H1086   1.079       .  S
C1087      C1088   1.375       .  A
C1087      C1092   1.395       .  A
C1088      C1089   1.395       .  A
C1088      H1093   1.077       .  S
C1089      C1210   1.475       .  S
C1089      C1090   1.400       .  A
C1090      C1091   1.420       .  A
C1090      H1094   1.080       .  S
C1091      C1092   1.420       .  A
C1092      H1095   1.076       .  S
C1096      C1113   1.495       .  S
C1096      C1097   1.433       .  A
C1097      C1122   1.512       .  S
C1097      C1098   1.434       .  A
C1098      C1151   1.505       .  S
C1098      C2755   1.431   1_465  A
C1099      C1142   1.506   1_545  S
C1099      C2754   1.431   1_545  A
C1100      C1131   1.497       .  S
C1100      C2757   1.419       .  A
C1101      C1106   1.497       .  S
C1101      C2756   1.419   1_455  A
C1102      C1166   1.471       .  S
C1102      C1103   1.385       .  A
C1102      C1107   1.387       .  A
C1103      C2760   1.415   1_455  A
C1103      H1108   1.079   1_455  S
C1104      C2759   1.415       .  A
C1104      C1105   1.407       .  A
C1105      C2762   1.425       .  A
C1105      H1109   1.079       .  S
C1106      C2761   1.425   1_455  A
C1106      C1107   1.411       .  A
C1107      H1110   1.077       .  S
C1111      C1164   1.461       .  S
C1111      C1112   1.402       .  A
C1112      H1117   1.076       .  S
C1113      C1114   1.405       .  A
C1114      C1115   1.394       .  A
C1114      H1118   1.076       .  S
C1115      C1116   1.379       .  A
C1116      H1119   1.083       .  S
C1120      C1121   1.399       .  A
C1120      C1125   1.396       .  A
C1121      C1122   1.408       .  A
C1121      H1126   1.072       .  S
C1122      C1123   1.407       .  A
C1123      C1124   1.408       .  A
C1123      H1127   1.076       .  S
C1124      C1240   1.474       .  S
C1124      C1125   1.397       .  A
C1125      H1128   1.081       .  S
C1129      C1196   1.476       .  S
C1129      C1130   1.399       .  A
C1129      C1134   1.395       .  A
C1130      C1131   1.419       .  A
C1130      H1135   1.078       .  S
C1131      C1132   1.421       .  A
C1132      C1133   1.396       .  A
C1132      H1136   1.076       .  S
C1133      C1134   1.372       .  A
C1134      H1137   1.077       .  S
C1138      C1193   1.487       .  S
C1138      C1143   1.408       .  A
C1139      C1140   1.387       .  A
C1139      H1144   1.072       .  S
C1140      C1141   1.394       .  A
C1141      C1142   1.416       .  A
C1141      H1145   1.078       .  S
C1143      H1146   1.077       .  S
C1147      C2804   1.384       .  A
C1147      C1152   1.395       .  A
C1148      C2803   1.383   1_455  A
C1148      C1149   1.390       .  A
C1148      H1153   1.044       .  S
C1149      C1242   1.484       .  S
C1149      C1150   1.407       .  A
C1150      C1151   1.429       .  A
C1150      H1154   1.082       .  S
C1151      C2808   1.420   1_455  A
C1152      C2807   1.420       .  A
C1152      H1155   1.076       .  S
O1156      C1164   1.255       .  A
O1156     Co1176   1.973       .  S
O1157      C1165   1.259       .  A
O1157     Co1177   1.985       .  S
O1158      C1166   1.279       .  A
O1158     Co1178   2.013       .  S
O1159      C1167   1.282       .  A
O1159     Co1179   2.025       .  S
O1160      C1166   1.270       .  A
O1160     Co1177   1.984       .  S
O1161      C1167   1.268       .  A
O1161     Co1176   1.983       .  S
O1162      C1165   1.268       .  A
O1162     Co1179   1.972       .  S
O1163      C1164   1.270       .  A
O1163     Co1178   1.990       .  S
O1168      C1181   1.263       .  A
O1168     Co1176   1.983       .  S
O1169      C1182   1.264       .  A
O1169     Co1177   1.989       .  S
O1170      C1183   1.268       .  A
O1170     Co1178   1.980       .  S
O1171      C1184   1.272       .  A
O1171     Co1179   1.986       .  S
O1172      C1184   1.285       .  A
O1172     Co1177   2.026       .  S
O1173      C1183   1.287       .  A
O1173     Co1176   2.042       .  S
O1174      C1181   1.268       .  A
O1174     Co1179   2.011       .  S
O1175      C1182   1.267       .  A
O1175     Co1178   2.001       .  S
Co1176     O1180   2.082       .  S
Co1177     O1180   2.088       .  S
Co1178     O1180   2.079       .  S
Co1179     O1180   2.080       .  S
O1185      C1193   1.275       .  A
O1185     Co1205   2.003       .  S
O1186      C1194   1.270       .  A
O1186     Co1206   1.963       .  S
O1187      C1195   1.270       .  A
O1187     Co1207   1.989       .  S
O1188      C1196   1.277       .  A
O1188     Co1208   2.010       .  S
O1189      C1195   1.277       .  A
O1189     Co1206   2.010       .  S
O1190      C1196   1.268       .  A
O1190     Co1205   1.959       .  S
O1191      C1194   1.280       .  A
O1191     Co1208   2.004       .  S
O1192      C1193   1.274       .  A
O1192     Co1207   2.015       .  S
O1197      C1210   1.280       .  A
O1197     Co1205   2.011       .  S
O1198      C1211   1.282       .  A
O1198     Co1206   2.011       .  S
O1199      C1212   1.273       .  A
O1199     Co1207   2.002       .  S
O1200      C1213   1.265       .  A
O1200     Co1208   1.986       .  S
O1201      C1213   1.291       .  A
O1201     Co1206   2.063       .  S
O1202      C1212   1.278       .  A
O1202     Co1205   2.012       .  S
O1203      C1210   1.272       .  A
O1203     Co1208   1.971       .  S
O1204      C1211   1.278       .  A
O1204     Co1207   2.010       .  S
Co1205     O1209   2.083       .  S
Co1206     O1209   2.083       .  S
Co1207     O1209   2.085       .  S
Co1208     O1209   2.099       .  S
O1214      C1222   1.287       .  A
O1214     Co1234   2.050       .  S
O1215      C1223   1.290       .  A
O1215     Co1235   1.934       .  S
O1216      C1224   1.302       .  A
O1216     Co1236   2.062       .  S
O1217      C1225   1.270       .  A
O1217     Co1237   1.999       .  S
O1218      C1224   1.283       .  A
O1218     Co1235   2.016       .  S
O1219      C1225   1.257       .  A
O1219     Co1234   1.996       .  S
O1220      C1223   1.287       .  A
O1220     Co1237   2.041       .  S
O1221      C1222   1.294       .  A
O1221     Co1236   2.053       .  S
O1226      C1239   1.295       .  A
O1226     Co1234   2.038       .  S
O1227      C1240   1.300       .  A
O1227     Co1235   2.092       .  S
O1228      C1241   1.266       .  A
O1228     Co1236   2.034       .  S
O1229      C1242   1.272       .  A
O1229     Co1237   2.009       .  S
O1230      C1242   1.280       .  A
O1230     Co1235   2.010       .  S
O1231      C1241   1.286       .  A
O1231     Co1234   2.022       .  S
O1232      C1239   1.275       .  A
O1232     Co1237   1.967       .  S
O1233      C1240   1.263       .  A
O1233     Co1236   1.992       .  S
Co1234     O1238   2.008       .  S
Co1235     O1238   1.890       .  S
Co1236     O1238   2.009       .  S
Co1237     O1238   2.064       .  S
O1243      C1251   1.269       .  A
O1243     Co1263   1.974       .  S
O1244      C1252   1.274       .  A
O1244     Co1264   2.034       .  S
O1245      C1253   1.265       .  A
O1245     Co1265   1.964       .  S
O1246      C1254   1.322       .  A
O1246     Co1266   2.129       .  S
O1247      C1253   1.261       .  A
O1247     Co1264   1.990       .  S
O1248      C1254   1.268       .  A
O1248     Co1263   1.945       .  S
O1249      C1252   1.299       .  A
O1249     Co1266   2.026       .  S
O1250      C1251   1.274       .  A
O1250     Co1265   1.971       .  S
C1251      C1492   1.453       .  S
C1252      C1356   1.466       .  S
C1253      C1467   1.453       .  S
C1254      C1383   1.461       .  S
O1255      C1268   1.267       .  A
O1255     Co1263   1.959       .  S
O1256      C1269   1.328       .  A
O1256     Co1264   2.168       .  S
O1257      C1270   1.270       .  A
O1257     Co1265   1.976       .  S
O1258      C1271   1.266       .  A
O1258     Co1266   2.011       .  S
O1259      C1271   1.286       .  A
O1259     Co1264   1.982       .  S
O1260      C1270   1.280       .  A
O1260     Co1263   2.014       .  S
O1261      C1268   1.265       .  A
O1261     Co1266   2.002       .  S
O1262      C1269   1.264       .  A
O1262     Co1265   1.931       .  S
Co1263     O1267   1.948       .  S
Co1264     O1267   2.001       .  S
Co1265     O1267   1.924       .  S
Co1266     O1267   2.010       .  S
C1268      C1396   1.458       .  S
C1269      C1534   1.474       .  S
C1270      C1405   1.466       .  S
C1271      C1529   1.434       .  S
O1272      C1280   1.277       .  A
O1272     Co1292   2.003       .  S
O1273      C1281   1.298       .  A
O1273     Co1293   2.055       .  S
O1274      C1282   1.268       .  A
O1274     Co1294   1.969       .  S
O1275      C1283   1.279       .  A
O1275     Co1295   1.982       .  S
O1276      C1282   1.292       .  A
O1276     Co1293   2.041       .  S
O1277      C1283   1.287       .  A
O1277     Co1292   2.016       .  S
O1278      C1281   1.282       .  A
O1278     Co1295   1.980       .  S
O1279      C1280   1.282       .  A
O1279     Co1294   1.994       .  S
C1280      C1501   1.474       .  S
C1281      C1441   1.473       .  S
C1282      C1456   1.496       .  S
C1283      C1436   1.476       .  S
O1284      C1297   1.267       .  A
O1284     Co1292   1.963       .  S
O1285      C1298   1.280       .  A
O1285     Co1293   1.986       .  S
O1286      C1299   1.275       .  A
O1286     Co1294   2.005       .  S
O1287      C1300   1.304       .  A
O1287     Co1295   2.070       .  S
O1288      C1300   1.283       .  A
O1288     Co1293   1.988       .  S
O1289      C1299   1.279       .  A
O1289     Co1292   1.985       .  S
O1290      C1297   1.296       .  A
O1290     Co1295   2.051       .  S
O1291      C1298   1.286       .  A
O1291     Co1294   2.019       .  S
Co1292     O1296   2.012       .  S
Co1293     O1296   1.922       .  S
Co1294     O1296   2.008       .  S
Co1295     O1296   1.922       .  S
C1297      C1518   1.500       .  S
C1298      C1367   1.481       .  S
C1299      C1547   1.472       .  S
C1300      C1347   1.483       .  S
O1301      C1309   1.259       .  A
O1301     Co1321   1.968       .  S
O1302      C1310   1.272       .  A
O1302     Co1322   2.011       .  S
O1303      C1311   1.278       .  A
O1303     Co1323   2.009       .  S
O1304      C1312   1.277       .  A
O1304     Co1324   1.983       .  S
O1305      C1311   1.288       .  A
O1305     Co1322   2.020       .  S
O1306      C1312   1.276       .  A
O1306     Co1321   1.995       .  S
O1307      C1310   1.269       .  A
O1307     Co1324   1.994       .  S
O1308      C1309   1.277       .  A
O1308     Co1323   2.024       .  S
C1309      C1485   1.471       .  S
C1310      C1561   1.481       .  S
C1311      C1474   1.491       .  S
C1312      C1554   1.469       .  S
O1313      C1326   1.256       .  A
O1313     Co1321   1.959       .  S
O1314      C1327   1.257       .  A
O1314     Co1322   1.953       .  S
O1315      C1328   1.277       .  A
O1315     Co1323   2.007       .  S
O1316      C1329   1.282       .  A
O1316     Co1324   2.000       .  S
O1317      C1329   1.288       .  A
O1317     Co1322   2.030       .  S
O1318      C1328   1.285       .  A
O1318     Co1321   2.031       .  S
O1319      C1326   1.286       .  A
O1319     Co1324   2.059       .  S
O1320      C1327   1.281       .  A
O1320     Co1323   2.054       .  S
Co1321     O1325   2.078       .  S
Co1322     O1325   2.080       .  S
Co1323     O1325   2.095       .  S
Co1324     O1325   2.093       .  S
C1326      C1340   1.506       .  S
C1327      C1423   1.497       .  S
C1328      C1374   1.490       .  S
C1329      C1414   1.490       .  S
C1330      C1338   1.498       .  S
C1330      C1331   1.434   1_545  A
C1331      C1376   1.540       .  S
C1331      C1332   1.448       .  A
C1332      C1385   1.502       .  S
C1333      C1358   1.539       .  S
C1334      C1365   1.505       .  S
C1336      C1626   1.491       .  S
C1336      C1337   1.391       .  A
C1337      H1342   1.075       .  S
C1338      C1339   1.424   1_545  A
C1339      C1340   1.407       .  A
C1339      H1343   1.078       .  S
C1340      C1341   1.419       .  A
C1341      H1344   1.075       .  S
C1345      C1625   1.491       .  S
C1345      C1350   1.408       .  A
C1346      C1347   1.407   1_554  A
C1346      H1351   1.083   1_554  S
C1347      C1348   1.400       .  A
C1348      C1349   1.414   1_556  A
C1348      H1352   1.076       .  S
C1350      H1353   1.074       .  S
C1354      C1597   1.477       .  S
C1354      C1359   1.413       .  A
C1355      C1356   1.383   1_545  A
C1355      H1360   1.084       .  S
C1356      C1357   1.412       .  A
C1357      C1358   1.419   1_565  A
C1357      H1361   1.073       .  S
C1359      H1362   1.074       .  S
C1363      C1595   1.480       .  S
C1363      C1364   1.395       .  A
C1363      C1368   1.384       .  A
C1364      C1365   1.419       .  A
C1364      H1369   1.073       .  S
C1365      C1366   1.425       .  A
C1366      C1367   1.404       .  A
C1366      H1370   1.079       .  S
C1367      C1368   1.393       .  A
C1368      H1371   1.072       .  S
C1372      C1655   1.478       .  S
C1372      C1373   1.387       .  A
C1372      C1377   1.408       .  A
C1373      C1374   1.380       .  A
C1373      H1378   1.084       .  S
C1374      C1375   1.420       .  A
C1375      C1376   1.436       .  A
C1375      H1379   1.076       .  S
C1376      C1377   1.423       .  A
C1377      H1380   1.076       .  S
C1381      C1653   1.458       .  S
C1381      C1386   1.398       .  A
C1382      C1383   1.378       .  A
C1382      H1387   1.079       .  S
C1383      C1384   1.406       .  A
C1384      H1388   1.079       .  S
C1385      C1386   1.413       .  A
C1386      H1389   1.076       .  S
C1390      C1407   1.506       .  S
C1390      C3047   1.430   1_455  A
C1390      C1395   1.438       .  A
C1391      C3090   1.496       .  S
C1391      C3046   1.430       .  A
C1391      C1392   1.425       .  A
C1392      C1443   1.513   1_556  S
C1393      C1425   1.482       .  S
C1393      C1394   1.422       .  A
C1394      C1418   1.507       .  S
C1394      C2637   1.432       .  A
C1395      C1398   1.516   1_556  S
C1395      C2636   1.432   1_456  A
C1396      C1397   1.410       .  A
C1397      C1398   1.414   1_556  A
C1397      H1402   1.079       .  S
C1399      C1400   1.408       .  A
C1399      H1403   1.074       .  S
C1400      C1639   1.475       .  S
C1400      C1401   1.379       .  A
C1401      H1404   1.082       .  S
C1405      C1406   1.407       .  A
C1405      C1410   1.396       .  A
C1406      C1407   1.416       .  A
C1406      H1411   1.082       .  S
C1407      C1408   1.420       .  A
C1408      C1409   1.400       .  A
C1408      H1412   1.077       .  S
C1409      C1598   1.476       .  S
C1409      C1410   1.376       .  A
C1410      H1413   1.080       .  S
C1414      C1415   1.386       .  A
C1414      C1419   1.404       .  A
C1415      C3072   1.406       .  A
C1415      H1420   1.057       .  S
C1416      C1637   1.476       .  S
C1416      C3071   1.405   1_455  A
C1416      C1417   1.406       .  A
C1417      C3074   1.418   1_455  A
C1417      H1421   1.078       .  S
C1418      C3073   1.418       .  A
C1418      C1419   1.423       .  A
C1419      H1422   1.080       .  S
C1423      C1424   1.401       .  A
C1423      C1428   1.403       .  A
C1424      C1425   1.424       .  A
C1424      H1429   1.077       .  S
C1425      C1426   1.410       .  A
C1426      C1427   1.382       .  A
C1426      H1430   1.077       .  S
C1427      C1608   1.476       .  S
C1427      C1428   1.394       .  A
C1428      H1431   1.068       .  S
C1432      C1596   1.474       .  S
C1432      C1433   1.389       .  A
C1432      C1437   1.383   1_455  A
C1433      C1434   1.414   1_455  A
C1433      H1438   1.072       .  S
C1434      C3047   1.496       .  S
C1434      C3091   1.421       .  A
C1435      C3090   1.421       .  A
C1435      C1436   1.401       .  A
C1435      H1439   1.079       .  S
C1436      C3093   1.399       .  A
C1437      C3092   1.399       .  A
C1437      H1440   1.074       .  S
C1441      C1442   1.400       .  A
C1441      C1446   1.401       .  A
C1442      C1443   1.414   1_556  A
C1442      H1447   1.077       .  S
C1444      C1445   1.401       .  A
C1444      H1448   1.073       .  S
C1445      C1609   1.474       .  S
C1446      H1449   1.084       .  S
C1450      C1505   1.495       .  S
C1450      C1451   1.419       .  A
C1450      C1455   1.430       .  A
C1451      C1460   1.506       .  S
C1451      C1452   1.416       .  A
C1452      C1494   1.482       .  S
C1452      C1453   1.430       .  A
C1453      C1469   1.520       .  S
C1453      C1454   1.436       .  A
C1454      C1487   1.505       .  S
C1454      C1455   1.435       .  A
C1455      C1478   1.508       .  S
C1456      C1457   1.411       .  A
C1456      C1461   1.408       .  A
C1457      C1458   1.380       .  A
C1457      H1462   1.077       .  S
C1458      C1581   1.475       .  S
C1458      C1459   1.391       .  A
C1459      C1460   1.414       .  A
C1459      H1463   1.077       .  S
C1460      C1461   1.425       .  A
C1461      H1464   1.078       .  S
C1465      C1638   1.480       .  S
C1465      C1466   1.386       .  A
C1465      C1470   1.417       .  A
C1466      C1467   1.370       .  A
C1466      H1471   1.071       .  S
C1467      C1468   1.395       .  A
C1468      C1469   1.411       .  A
C1468      H1472   1.073       .  S
C1469      C1470   1.430       .  A
C1470      H1473   1.079       .  S
C1474      C1475   1.391       .  A
C1474      C1479   1.392       .  A
C1475      C1476   1.421       .  A
C1475      H1480   1.074       .  S
C1476      C1627   1.515       .  S
C1476      C1477   1.414       .  A
C1477      C1478   1.429       .  A
C1477      H1481   1.080       .  S
C1478      C1479   1.415       .  A
C1479      H1482   1.074       .  S
C1483      C1636   1.443       .  S
C1483      C1484   1.386       .  A
C1483      C1488   1.400       .  A
C1484      C1485   1.388       .  A
C1484      H1489   1.084       .  S
C1485      C1486   1.403       .  A
C1486      C1487   1.414       .  A
C1486      H1490   1.072       .  S
C1487      C1488   1.402       .  A
C1488      H1491   1.075       .  S
C1492      C1493   1.393       .  A
C1492      C1497   1.388       .  A
C1493      C1494   1.414       .  A
C1493      H1498   1.082       .  S
C1494      C1495   1.416       .  A
C1495      C1496   1.392       .  A
C1495      H1499   1.076       .  S
C1496      C1579   1.460       .  S
C1496      C1497   1.372       .  A
C1497      H1500   1.079       .  S
C1501      C1502   1.375       .  A
C1501      C1506   1.396       .  A
C1502      C1503   1.395       .  A
C1502      H1507   1.077       .  S
C1503      C1624   1.475       .  S
C1503      C1504   1.400       .  A
C1504      C1505   1.420       .  A
C1504      H1508   1.080       .  S
C1505      C1506   1.420       .  A
C1506      H1509   1.076       .  S
C1510      C1527   1.495       .  S
C1510      C1511   1.433       .  A
C1511      C1536   1.512       .  S
C1511      C1512   1.434       .  A
C1512      C1565   1.505       .  S
C1512      C3169   1.431   1_465  A
C1513      C1556   1.506   1_545  S
C1513      C3168   1.431   1_545  A
C1514      C1545   1.497       .  S
C1514      C3171   1.419       .  A
C1515      C1520   1.497       .  S
C1515      C3170   1.419   1_455  A
C1516      C1580   1.471       .  S
C1516      C1517   1.385       .  A
C1516      C1521   1.387       .  A
C1517      C3174   1.415   1_455  A
C1517      H1522   1.079   1_455  S
C1518      C3173   1.415       .  A
C1518      C1519   1.407       .  A
C1519      C3176   1.425       .  A
C1519      H1523   1.079       .  S
C1520      C3175   1.425   1_455  A
C1520      C1521   1.411       .  A
C1521      H1524   1.077       .  S
C1525      C1578   1.461       .  S
C1525      C1526   1.402       .  A
C1526      H1531   1.076       .  S
C1527      C1528   1.405       .  A
C1528      C1529   1.394       .  A
C1528      H1532   1.076       .  S
C1529      C1530   1.379       .  A
C1530      H1533   1.083       .  S
C1534      C1535   1.399       .  A
C1534      C1539   1.396       .  A
C1535      C1536   1.408       .  A
C1535      H1540   1.072       .  S
C1536      C1537   1.407       .  A
C1537      C1538   1.408       .  A
C1537      H1541   1.076       .  S
C1538      C1654   1.474       .  S
C1538      C1539   1.397       .  A
C1539      H1542   1.081       .  S
C1543      C1610   1.476       .  S
C1543      C1544   1.399       .  A
C1543      C1548   1.395       .  A
C1544      C1545   1.419       .  A
C1544      H1549   1.078       .  S
C1545      C1546   1.421       .  A
C1546      C1547   1.396       .  A
C1546      H1550   1.076       .  S
C1547      C1548   1.372       .  A
C1548      H1551   1.077       .  S
C1552      C1607   1.487       .  S
C1552      C1557   1.408       .  A
C1553      C1554   1.387       .  A
C1553      H1558   1.072       .  S
C1554      C1555   1.394       .  A
C1555      C1556   1.416       .  A
C1555      H1559   1.078       .  S
C1557      H1560   1.077       .  S
C1561      C3218   1.383       .  A
C1561      C1566   1.395       .  A
C1562      C3217   1.383   1_455  A
C1562      C1563   1.390       .  A
C1562      H1567   1.045       .  S
C1563      C1656   1.484       .  S
C1563      C1564   1.407       .  A
C1564      C1565   1.429       .  A
C1564      H1568   1.082       .  S
C1565      C3222   1.420   1_455  A
C1566      C3221   1.420       .  A
C1566      H1569   1.076       .  S
O1570      C1578   1.255       .  A
O1570     Co1590   1.973       .  S
O1571      C1579   1.259       .  A
O1571     Co1591   1.985       .  S
O1572      C1580   1.279       .  A
O1572     Co1592   2.013       .  S
O1573      C1581   1.282       .  A
O1573     Co1593   2.025       .  S
O1574      C1580   1.270       .  A
O1574     Co1591   1.984       .  S
O1575      C1581   1.268       .  A
O1575     Co1590   1.983       .  S
O1576      C1579   1.268       .  A
O1576     Co1593   1.972       .  S
O1577      C1578   1.270       .  A
O1577     Co1592   1.990       .  S
O1582      C1595   1.263       .  A
O1582     Co1590   1.983       .  S
O1583      C1596   1.264       .  A
O1583     Co1591   1.989       .  S
O1584      C1597   1.268       .  A
O1584     Co1592   1.980       .  S
O1585      C1598   1.272       .  A
O1585     Co1593   1.986       .  S
O1586      C1598   1.285       .  A
O1586     Co1591   2.026       .  S
O1587      C1597   1.287       .  A
O1587     Co1590   2.042       .  S
O1588      C1595   1.268       .  A
O1588     Co1593   2.011       .  S
O1589      C1596   1.267       .  A
O1589     Co1592   2.001       .  S
Co1590     O1594   2.082       .  S
Co1591     O1594   2.088       .  S
Co1592     O1594   2.079       .  S
Co1593     O1594   2.080       .  S
O1599      C1607   1.275       .  A
O1599     Co1619   2.003       .  S
O1600      C1608   1.270       .  A
O1600     Co1620   1.963       .  S
O1601      C1609   1.270       .  A
O1601     Co1621   1.989       .  S
O1602      C1610   1.277       .  A
O1602     Co1622   2.010       .  S
O1603      C1609   1.277       .  A
O1603     Co1620   2.010       .  S
O1604      C1610   1.268       .  A
O1604     Co1619   1.959       .  S
O1605      C1608   1.280       .  A
O1605     Co1622   2.004       .  S
O1606      C1607   1.274       .  A
O1606     Co1621   2.015       .  S
O1611      C1624   1.280       .  A
O1611     Co1619   2.011       .  S
O1612      C1625   1.282       .  A
O1612     Co1620   2.011       .  S
O1613      C1626   1.273       .  A
O1613     Co1621   2.002       .  S
O1614      C1627   1.265       .  A
O1614     Co1622   1.986       .  S
O1615      C1627   1.291       .  A
O1615     Co1620   2.063       .  S
O1616      C1626   1.278       .  A
O1616     Co1619   2.012       .  S
O1617      C1624   1.272       .  A
O1617     Co1622   1.971       .  S
O1618      C1625   1.278       .  A
O1618     Co1621   2.010       .  S
Co1619     O1623   2.083       .  S
Co1620     O1623   2.083       .  S
Co1621     O1623   2.085       .  S
Co1622     O1623   2.099       .  S
O1628      C1636   1.287       .  A
O1628     Co1648   2.050       .  S
O1629      C1637   1.290       .  A
O1629     Co1649   1.934       .  S
O1630      C1638   1.302       .  A
O1630     Co1650   2.062       .  S
O1631      C1639   1.270       .  A
O1631     Co1651   1.999       .  S
O1632      C1638   1.283       .  A
O1632     Co1649   2.016       .  S
O1633      C1639   1.257       .  A
O1633     Co1648   1.996       .  S
O1634      C1637   1.287       .  A
O1634     Co1651   2.041       .  S
O1635      C1636   1.294       .  A
O1635     Co1650   2.053       .  S
O1640      C1653   1.295       .  A
O1640     Co1648   2.038       .  S
O1641      C1654   1.300       .  A
O1641     Co1649   2.092       .  S
O1642      C1655   1.266       .  A
O1642     Co1650   2.034       .  S
O1643      C1656   1.272       .  A
O1643     Co1651   2.009       .  S
O1644      C1656   1.280       .  A
O1644     Co1649   2.010       .  S
O1645      C1655   1.286       .  A
O1645     Co1648   2.022       .  S
O1646      C1653   1.275       .  A
O1646     Co1651   1.967       .  S
O1647      C1654   1.263       .  A
O1647     Co1650   1.992       .  S
Co1648     O1652   2.008       .  S
Co1649     O1652   1.890       .  S
Co1650     O1652   2.009       .  S
Co1651     O1652   2.064       .  S
O1657      C1665   1.285       .  A
O1657     Co1677   1.921       .  S
O1658      C1666   1.271       .  A
O1658     Co1678   2.026       .  S
O1659      C1667   1.263       .  A
O1659     Co1679   1.952       .  S
O1660      C1668   1.313       .  A
O1660     Co1680   2.092       .  S
O1661      C1667   1.264       .  A
O1661     Co1678   2.003       .  S
O1662      C1668   1.277       .  A
O1662     Co1677   2.003       .  S
O1663      C1666   1.298       .  A
O1663     Co1680   2.026       .  S
O1664      C1665   1.289       .  A
O1664     Co1679   2.036       .  S
C1665      C1906   1.453       .  S
C1666      C1770   1.457       .  S
C1667      C1881   1.456       .  S
C1668      C1797   1.476       .  S
O1669      C1682   1.299       .  A
O1669     Co1677   2.070       .  S
O1670      C1683   1.323       .  A
O1670     Co1678   2.151       .  S
O1671      C1684   1.260       .  A
O1671     Co1679   1.959       .  S
O1672      C1685   1.267       .  A
O1672     Co1680   2.013       .  S
O1673      C1685   1.284       .  A
O1673     Co1678   1.972       .  S
O1674      C1684   1.294       .  A
O1674     Co1677   2.076       .  S
O1675      C1682   1.257       .  A
O1675     Co1680   1.969       .  S
O1676      C1683   1.264       .  A
O1676     Co1679   1.944       .  S
Co1677     O1681   1.909       .  S
Co1678     O1681   2.013       .  S
Co1679     O1681   1.955       .  S
Co1680     O1681   2.002       .  S
C1682      C1810   1.470       .  S
C1683      C1948   1.475       .  S
C1684      C1819   1.465       .  S
C1685      C1943   1.431       .  S
O1686      C1694   1.277       .  A
O1686     Co1706   2.003       .  S
O1687      C1695   1.298       .  A
O1687     Co1707   2.055       .  S
O1688      C1696   1.268       .  A
O1688     Co1708   1.969       .  S
O1689      C1697   1.279       .  A
O1689     Co1709   1.982       .  S
O1690      C1696   1.292       .  A
O1690     Co1707   2.040       .  S
O1691      C1697   1.287       .  A
O1691     Co1706   2.016       .  S
O1692      C1695   1.282       .  A
O1692     Co1709   1.981       .  S
O1693      C1694   1.282       .  A
O1693     Co1708   1.993       .  S
C1694      C1915   1.474       .  S
C1695      C1855   1.474       .  S
C1696      C1870   1.495       .  S
C1697      C1850   1.476       .  S
O1698      C1711   1.267       .  A
O1698     Co1706   1.963       .  S
O1699      C1712   1.280       .  A
O1699     Co1707   1.986       .  S
O1700      C1713   1.275       .  A
O1700     Co1708   2.005       .  S
O1701      C1714   1.304       .  A
O1701     Co1709   2.069       .  S
O1702      C1714   1.283       .  A
O1702     Co1707   1.988       .  S
O1703      C1713   1.279       .  A
O1703     Co1706   1.985       .  S
O1704      C1711   1.296       .  A
O1704     Co1709   2.050       .  S
O1705      C1712   1.287       .  A
O1705     Co1708   2.019       .  S
Co1706     O1710   2.012       .  S
Co1707     O1710   1.921       .  S
Co1708     O1710   2.008       .  S
Co1709     O1710   1.922       .  S
C1711      C1932   1.499       .  S
C1712      C1781   1.480       .  S
C1713      C1961   1.472       .  S
C1714      C1761   1.481       .  S
O1715      C1723   1.259       .  A
O1715     Co1735   1.969       .  S
O1716      C1724   1.272       .  A
O1716     Co1736   2.010       .  S
O1717      C1725   1.278       .  A
O1717     Co1737   2.010       .  S
O1718      C1726   1.277       .  A
O1718     Co1738   1.984       .  S
O1719      C1725   1.287       .  A
O1719     Co1736   2.020       .  S
O1720      C1726   1.276       .  A
O1720     Co1735   1.994       .  S
O1721      C1724   1.269       .  A
O1721     Co1738   1.994       .  S
O1722      C1723   1.277       .  A
O1722     Co1737   2.024       .  S
C1723      C1899   1.472       .  S
C1724      C1975   1.481       .  S
C1725      C1888   1.492       .  S
C1726      C1968   1.470       .  S
O1727      C1740   1.256       .  A
O1727     Co1735   1.961       .  S
O1728      C1741   1.257       .  A
O1728     Co1736   1.954       .  S
O1729      C1742   1.277       .  A
O1729     Co1737   2.005       .  S
O1730      C1743   1.282       .  A
O1730     Co1738   2.001       .  S
O1731      C1743   1.288       .  A
O1731     Co1736   2.030       .  S
O1732      C1742   1.286       .  A
O1732     Co1735   2.031       .  S
O1733      C1740   1.286       .  A
O1733     Co1738   2.060       .  S
O1734      C1741   1.280       .  A
O1734     Co1737   2.052       .  S
Co1735     O1739   2.079       .  S
Co1736     O1739   2.080       .  S
Co1737     O1739   2.095       .  S
Co1738     O1739   2.093       .  S
C1740      C1754   1.506       .  S
C1741      C1837   1.497       .  S
C1742      C1788   1.489       .  S
C1743      C1828   1.491       .  S
C1744      C1752   1.501       .  S
C1744      C1745   1.438       .  A
C1744      C2577   1.433       .  A
C1745      C1790   1.539       .  S
C1745      C1746   1.452   1_554  A
C1746      C1799   1.514       .  S
C1746      C2161   1.447       .  A
C1747      C1772   1.536       .  S
C1747      C2160   1.447       .  A
C1747      C2576   1.438       .  A
C1748      C1779   1.504       .  S
C1748      C2575   1.437       .  A
C1748      C2163   1.436       .  A
C1749      C2177   1.518       .  S
C1749      C2572   1.433       .  A
C1749      C2162   1.436   1_554  A
C1750      C2040   1.489       .  S
C1750      C1751   1.390       .  A
C1750      C2583   1.389   1_545  A
C1751      C2580   1.414       .  A
C1751      H1756   1.075       .  S
C1752      C2579   1.415       .  A
C1752      C1753   1.424       .  A
C1753      C1754   1.407       .  A
C1753      H1757   1.078       .  S
C1754      C1755   1.419       .  A
C1755      C2578   1.389       .  A
C1755      H1758   1.075       .  S
C1759      C2039   1.490       .  S
C1759      C2174   1.399       .  A
C1759      C1764   1.407       .  A
C1760      C2173   1.399       .  A
C1760      C1761   1.407       .  A
C1760      H1765   1.083       .  S
C1761      C1762   1.399       .  A
C1762      C1763   1.413       .  A
C1762      H1766   1.076       .  S
C1763      C2163   1.518       .  S
C1763      C2178   1.426       .  A
C1764      C2177   1.426       .  A
C1764      H1767   1.074       .  S
C1768      C2011   1.479       .  S
C1768      C2597   1.383       .  A
C1768      C1773   1.413       .  A
C1769      C2596   1.379       .  A
C1769      C1770   1.380       .  A
C1769      H1774   1.085       .  S
C1770      C1771   1.410       .  A
C1771      C1772   1.416       .  A
C1771      H1775   1.073       .  S
C1772      C2601   1.426       .  A
C1773      C2600   1.425       .  A
C1773      H1776   1.074       .  S
C1777      C2009   1.481       .  S
C1777      C1778   1.395       .  A
C1777      C1782   1.385       .  A
C1778      C1779   1.419       .  A
C1778      H1783   1.073       .  S
C1779      C1780   1.425       .  A
C1780      C1781   1.403       .  A
C1780      H1784   1.079       .  S
C1781      C1782   1.394       .  A
C1782      H1785   1.072       .  S
C1786      C2069   1.477       .  S
C1786      C1787   1.387       .  A
C1786      C1791   1.408       .  A
C1787      C1788   1.380       .  A
C1787      H1792   1.084       .  S
C1788      C1789   1.419       .  A
C1789      C1790   1.435       .  A
C1789      H1793   1.076       .  S
C1790      C1791   1.423       .  A
C1791      H1794   1.076       .  S
C1795      C2067   1.459       .  S
C1795      C2210   1.379   1_554  A
C1795      C1800   1.396       .  A
C1796      C2209   1.379       .  A
C1796      C1797   1.379       .  A
C1796      H1801   1.077       .  S
C1797      C1798   1.417       .  A
C1798      C2213   1.430       .  A
C1798      H1802   1.079       .  S
C1799      C2212   1.430       .  A
C1799      C1800   1.411   1_556  A
C1800      H1803   1.076       .  S
C1804      C1821   1.505       .  S
C1804      C1809   1.438       .  A
C1805      C1806   1.425       .  A
C1806      C1857   1.515       .  S
C1806      C2221   1.424       .  A
C1807      C1839   1.485       .  S
C1807      C2220   1.424   1_554  A
C1807      C1808   1.426       .  A
C1808      C1832   1.506       .  S
C1809      C1812   1.525       .  S
C1810      C1811   1.416       .  A
C1810      C2229   1.384       .  A
C1811      C1812   1.418       .  A
C1811      H1816   1.079       .  S
C1812      C2227   1.418       .  A
C1813      C2226   1.418       .  A
C1813      C1814   1.408       .  A
C1813      H1817   1.073       .  S
C1814      C2053   1.477       .  S
C1814      C1815   1.388       .  A
C1815      C2224   1.384   1_554  A
C1815      H1818   1.080       .  S
C1819      C1820   1.406       .  A
C1819      C1824   1.396       .  A
C1820      C1821   1.415       .  A
C1820      H1825   1.082       .  S
C1821      C1822   1.419       .  A
C1822      C1823   1.400       .  A
C1822      H1826   1.077       .  S
C1823      C2012   1.478       .  S
C1823      C1824   1.381       .  A
C1824      H1827   1.081       .  S
C1828      C1829   1.386       .  A
C1828      C1833   1.406       .  A
C1829      H1834   1.064       .  S
C1830      C2051   1.474       .  S
C1830      C1831   1.406       .  A
C1831      H1835   1.078       .  S
C1832      C1833   1.424       .  A
C1833      H1836   1.080       .  S
C1837      C1838   1.401       .  A
C1837      C1842   1.402       .  A
C1838      C1839   1.425       .  A
C1838      H1843   1.077       .  S
C1839      C1840   1.411       .  A
C1840      C1841   1.384       .  A
C1840      H1844   1.077       .  S
C1841      C2022   1.477       .  S
C1841      C1842   1.394       .  A
C1842      H1845   1.066       .  S
C1846      C2010   1.474       .  S
C1846      C1847   1.389       .  A
C1846      C1851   1.384       .  A
C1847      C1848   1.413       .  A
C1847      H1852   1.073       .  S
C1849      C1850   1.401       .  A
C1849      H1853   1.079       .  S
C1851      H1854   1.074       .  S
C1855      C1856   1.401       .  A
C1855      C1860   1.401       .  A
C1856      C1857   1.415       .  A
C1856      H1861   1.077       .  S
C1857      C2272   1.421       .  A
C1858      C2271   1.421       .  A
C1858      C1859   1.402       .  A
C1858      H1862   1.073       .  S
C1859      C2023   1.474       .  S
C1859      C2274   1.389   1_554  A
C1860      C2273   1.389       .  A
C1860      H1863   1.084       .  S
C1864      C1919   1.498       .  S
C1864      C1865   1.422       .  A
C1864      C1869   1.430       .  A
C1865      C1874   1.503       .  S
C1865      C1866   1.418       .  A
C1866      C1908   1.492       .  S
C1866      C1867   1.432       .  A
C1867      C1883   1.518       .  S
C1867      C1868   1.439       .  A
C1868      C1901   1.507       .  S
C1868      C1869   1.435       .  A
C1869      C1892   1.511       .  S
C1870      C1871   1.412       .  A
C1870      C1875   1.407       .  A
C1871      C1872   1.381       .  A
C1871      H1876   1.077       .  S
C1872      C1995   1.474       .  S
C1872      C1873   1.391       .  A
C1873      C1874   1.414       .  A
C1873      H1877   1.077       .  S
C1874      C1875   1.424       .  A
C1875      H1878   1.078       .  S
C1879      C2052   1.483       .  S
C1879      C1880   1.389       .  A
C1879      C1884   1.417       .  A
C1880      C1881   1.374       .  A
C1880      H1885   1.072       .  S
C1881      C1882   1.395       .  A
C1882      C1883   1.410       .  A
C1882      H1886   1.075       .  S
C1883      C1884   1.430       .  A
C1884      H1887   1.079       .  S
C1888      C1889   1.390       .  A
C1888      C1893   1.393       .  A
C1889      C1890   1.420       .  A
C1889      H1894   1.073       .  S
C1890      C2041   1.515       .  S
C1890      C1891   1.414       .  A
C1891      C1892   1.430       .  A
C1891      H1895   1.080       .  S
C1892      C1893   1.416       .  A
C1893      H1896   1.074       .  S
C1897      C2050   1.444       .  S
C1897      C1898   1.386       .  A
C1897      C1902   1.400       .  A
C1898      C1899   1.387       .  A
C1898      H1903   1.084       .  S
C1899      C1900   1.403       .  A
C1900      C1901   1.415       .  A
C1900      H1904   1.072       .  S
C1901      C1902   1.403       .  A
C1902      H1905   1.075       .  S
C1906      C1907   1.402       .  A
C1906      C1911   1.389       .  A
C1907      C1908   1.419       .  A
C1907      H1912   1.083       .  S
C1908      C1909   1.415       .  A
C1909      C1910   1.393       .  A
C1909      H1913   1.077       .  S
C1910      C1993   1.462       .  S
C1910      C1911   1.374       .  A
C1911      H1914   1.080       .  S
C1915      C1916   1.375       .  A
C1915      C1920   1.396       .  A
C1916      C1917   1.394       .  A
C1916      H1921   1.077       .  S
C1917      C2038   1.475       .  S
C1917      C1918   1.401       .  A
C1918      C1919   1.421       .  A
C1918      H1922   1.080       .  S
C1919      C1920   1.420       .  A
C1920      H1923   1.076       .  S
C1924      C1941   1.492       .  S
C1924      C1925   1.433       .  A
C1924      C2757   1.420       .  A
C1925      C1950   1.514       .  S
C1925      C1926   1.434       .  A
C1926      C1979   1.506       .  S
C1927      C1970   1.506       .  S
C1927      C2756   1.425       .  A
C1928      C1959   1.497       .  S
C1928      C2755   1.425       .  A
C1929      C1934   1.495       .  S
C1929      C2752   1.420   1_545  A
C1930      C1994   1.471       .  S
C1930      C1931   1.385       .  A
C1930      C1935   1.387       .  A
C1931      H1936   1.079       .  S
C1932      C1933   1.406       .  A
C1933      H1937   1.079       .  S
C1934      C1935   1.410       .  A
C1935      H1938   1.077       .  S
C1939      C1992   1.460       .  S
C1939      C1940   1.401       .  A
C1939      C2772   1.378   1_545  A
C1940      C2769   1.417   1_545  A
C1940      H1945   1.076       .  S
C1941      C2768   1.418       .  A
C1941      C1942   1.403       .  A
C1942      C1943   1.393       .  A
C1942      H1946   1.076       .  S
C1943      C1944   1.381       .  A
C1944      C2767   1.378       .  A
C1944      H1947   1.083       .  S
C1948      C1949   1.400       .  A
C1948      C1953   1.397       .  A
C1949      C1950   1.409       .  A
C1949      H1954   1.072       .  S
C1950      C1951   1.407       .  A
C1951      C1952   1.409       .  A
C1951      H1955   1.076       .  S
C1952      C2068   1.476       .  S
C1952      C1953   1.398       .  A
C1953      H1956   1.081       .  S
C1957      C2024   1.478       .  S
C1957      C1958   1.400       .  A
C1957      C1962   1.396       .  A
C1958      C1959   1.419       .  A
C1958      H1963   1.078       .  S
C1959      C1960   1.420       .  A
C1960      C1961   1.395       .  A
C1960      H1964   1.076       .  S
C1961      C1962   1.373       .  A
C1962      H1965   1.077       .  S
C1966      C2021   1.486       .  S
C1966      C2795   1.381   1_545  A
C1966      C1971   1.408       .  A
C1967      C2794   1.381       .  A
C1967      C1968   1.387       .  A
C1967      H1972   1.071       .  S
C1968      C1969   1.394       .  A
C1969      C1970   1.416       .  A
C1969      H1973   1.078       .  S
C1970      C2799   1.429       .  A
C1971      C2798   1.429   1_545  A
C1971      H1974   1.077       .  S
C1975      C1980   1.394       .  A
C1976      C1977   1.391       .  A
C1976      H1981   1.048       .  S
C1977      C2070   1.486       .  S
C1977      C1978   1.408       .  A
C1978      C1979   1.430       .  A
C1978      H1982   1.082       .  S
C1980      H1983   1.075       .  S
O1984      C1992   1.255       .  A
O1984     Co2004   1.972       .  S
O1985      C1993   1.258       .  A
O1985     Co2005   1.982       .  S
O1986      C1994   1.278       .  A
O1986     Co2006   2.012       .  S
O1987      C1995   1.281       .  A
O1987     Co2007   2.022       .  S
O1988      C1994   1.270       .  A
O1988     Co2005   1.984       .  S
O1989      C1995   1.268       .  A
O1989     Co2004   1.983       .  S
O1990      C1993   1.269       .  A
O1990     Co2007   1.975       .  S
O1991      C1992   1.270       .  A
O1991     Co2006   1.991       .  S
O1996      C2009   1.263       .  A
O1996     Co2004   1.983       .  S
O1997      C2010   1.264       .  A
O1997     Co2005   1.988       .  S
O1998      C2011   1.268       .  A
O1998     Co2006   1.981       .  S
O1999      C2012   1.272       .  A
O1999     Co2007   1.987       .  S
O2000      C2012   1.284       .  A
O2000     Co2005   2.029       .  S
O2001      C2011   1.286       .  A
O2001     Co2004   2.043       .  S
O2002      C2009   1.269       .  A
O2002     Co2007   2.012       .  S
O2003      C2010   1.267       .  A
O2003     Co2006   2.001       .  S
Co2004     O2008   2.083       .  S
Co2005     O2008   2.090       .  S
Co2006     O2008   2.081       .  S
Co2007     O2008   2.081       .  S
O2013      C2021   1.276       .  A
O2013     Co2033   2.004       .  S
O2014      C2022   1.270       .  A
O2014     Co2034   1.962       .  S
O2015      C2023   1.270       .  A
O2015     Co2035   1.989       .  S
O2016      C2024   1.278       .  A
O2016     Co2036   2.013       .  S
O2017      C2023   1.277       .  A
O2017     Co2034   2.011       .  S
O2018      C2024   1.268       .  A
O2018     Co2033   1.958       .  S
O2019      C2022   1.281       .  A
O2019     Co2036   2.006       .  S
O2020      C2021   1.274       .  A
O2020     Co2035   2.014       .  S
O2025      C2038   1.280       .  A
O2025     Co2033   2.010       .  S
O2026      C2039   1.282       .  A
O2026     Co2034   2.009       .  S
O2027      C2040   1.272       .  A
O2027     Co2035   2.001       .  S
O2028      C2041   1.265       .  A
O2028     Co2036   1.986       .  S
O2029      C2041   1.291       .  A
O2029     Co2034   2.063       .  S
O2030      C2040   1.277       .  A
O2030     Co2033   2.010       .  S
O2031      C2038   1.273       .  A
O2031     Co2036   1.972       .  S
O2032      C2039   1.278       .  A
O2032     Co2035   2.011       .  S
Co2033     O2037   2.083       .  S
Co2034     O2037   2.083       .  S
Co2035     O2037   2.084       .  S
Co2036     O2037   2.098       .  S
O2042      C2050   1.288       .  A
O2042     Co2062   2.050       .  S
O2043      C2051   1.290       .  A
O2043     Co2063   1.934       .  S
O2044      C2052   1.302       .  A
O2044     Co2064   2.064       .  S
O2045      C2053   1.268       .  A
O2045     Co2065   2.003       .  S
O2046      C2052   1.284       .  A
O2046     Co2063   2.021       .  S
O2047      C2053   1.258       .  A
O2047     Co2062   1.997       .  S
O2048      C2051   1.287       .  A
O2048     Co2065   2.040       .  S
O2049      C2050   1.293       .  A
O2049     Co2064   2.052       .  S
O2054      C2067   1.294       .  A
O2054     Co2062   2.034       .  S
O2055      C2068   1.300       .  A
O2055     Co2063   2.094       .  S
O2056      C2069   1.266       .  A
O2056     Co2064   2.033       .  S
O2057      C2070   1.273       .  A
O2057     Co2065   2.014       .  S
O2058      C2070   1.280       .  A
O2058     Co2063   2.010       .  S
O2059      C2069   1.286       .  A
O2059     Co2062   2.023       .  S
O2060      C2067   1.277       .  A
O2060     Co2065   1.971       .  S
O2061      C2068   1.263       .  A
O2061     Co2064   1.994       .  S
Co2062     O2066   2.009       .  S
Co2063     O2066   1.892       .  S
Co2064     O2066   2.012       .  S
Co2065     O2066   2.067       .  S
O2071      C2079   1.285       .  A
O2071     Co2091   1.921       .  S
O2072      C2080   1.271       .  A
O2072     Co2092   2.026       .  S
O2073      C2081   1.263       .  A
O2073     Co2093   1.952       .  S
O2074      C2082   1.313       .  A
O2074     Co2094   2.092       .  S
O2075      C2081   1.264       .  A
O2075     Co2092   2.003       .  S
O2076      C2082   1.277       .  A
O2076     Co2091   2.003       .  S
O2077      C2080   1.298       .  A
O2077     Co2094   2.026       .  S
O2078      C2079   1.289       .  A
O2078     Co2093   2.036       .  S
C2079      C2320   1.453       .  S
C2080      C2184   1.457       .  S
C2081      C2295   1.456       .  S
C2082      C2211   1.476       .  S
O2083      C2096   1.299       .  A
O2083     Co2091   2.070       .  S
O2084      C2097   1.323       .  A
O2084     Co2092   2.151       .  S
O2085      C2098   1.260       .  A
O2085     Co2093   1.960       .  S
O2086      C2099   1.267       .  A
O2086     Co2094   2.013       .  S
O2087      C2099   1.284       .  A
O2087     Co2092   1.972       .  S
O2088      C2098   1.294       .  A
O2088     Co2091   2.076       .  S
O2089      C2096   1.257       .  A
O2089     Co2094   1.969       .  S
O2090      C2097   1.264       .  A
O2090     Co2093   1.944       .  S
Co2091     O2095   1.909       .  S
Co2092     O2095   2.013       .  S
Co2093     O2095   1.955       .  S
Co2094     O2095   2.002       .  S
C2096      C2224   1.470       .  S
C2097      C2362   1.475       .  S
C2098      C2233   1.465       .  S
C2099      C2357   1.431       .  S
O2100      C2108   1.277       .  A
O2100     Co2120   2.003       .  S
O2101      C2109   1.298       .  A
O2101     Co2121   2.055       .  S
O2102      C2110   1.268       .  A
O2102     Co2122   1.969       .  S
O2103      C2111   1.279       .  A
O2103     Co2123   1.982       .  S
O2104      C2110   1.292       .  A
O2104     Co2121   2.041       .  S
O2105      C2111   1.287       .  A
O2105     Co2120   2.016       .  S
O2106      C2109   1.282       .  A
O2106     Co2123   1.981       .  S
O2107      C2108   1.282       .  A
O2107     Co2122   1.993       .  S
C2108      C2329   1.474       .  S
C2109      C2269   1.474       .  S
C2110      C2284   1.495       .  S
C2111      C2264   1.476       .  S
O2112      C2125   1.267       .  A
O2112     Co2120   1.963       .  S
O2113      C2126   1.280       .  A
O2113     Co2121   1.986       .  S
O2114      C2127   1.275       .  A
O2114     Co2122   2.005       .  S
O2115      C2128   1.304       .  A
O2115     Co2123   2.069       .  S
O2116      C2128   1.283       .  A
O2116     Co2121   1.988       .  S
O2117      C2127   1.279       .  A
O2117     Co2120   1.985       .  S
O2118      C2125   1.296       .  A
O2118     Co2123   2.050       .  S
O2119      C2126   1.287       .  A
O2119     Co2122   2.019       .  S
Co2120     O2124   2.012       .  S
Co2121     O2124   1.921       .  S
Co2122     O2124   2.008       .  S
Co2123     O2124   1.922       .  S
C2125      C2346   1.499       .  S
C2126      C2195   1.480       .  S
C2127      C2375   1.472       .  S
C2128      C2175   1.481       .  S
O2129      C2137   1.259       .  A
O2129     Co2149   1.969       .  S
O2130      C2138   1.272       .  A
O2130     Co2150   2.010       .  S
O2131      C2139   1.278       .  A
O2131     Co2151   2.010       .  S
O2132      C2140   1.277       .  A
O2132     Co2152   1.984       .  S
O2133      C2139   1.287       .  A
O2133     Co2150   2.020       .  S
O2134      C2140   1.276       .  A
O2134     Co2149   1.994       .  S
O2135      C2138   1.269       .  A
O2135     Co2152   1.994       .  S
O2136      C2137   1.277       .  A
O2136     Co2151   2.024       .  S
C2137      C2313   1.472       .  S
C2138      C2389   1.481       .  S
C2139      C2302   1.492       .  S
C2140      C2382   1.470       .  S
O2141      C2154   1.256       .  A
O2141     Co2149   1.961       .  S
O2142      C2155   1.257       .  A
O2142     Co2150   1.954       .  S
O2143      C2156   1.277       .  A
O2143     Co2151   2.005       .  S
O2144      C2157   1.282       .  A
O2144     Co2152   2.001       .  S
O2145      C2157   1.288       .  A
O2145     Co2150   2.030       .  S
O2146      C2156   1.286       .  A
O2146     Co2149   2.031       .  S
O2147      C2154   1.286       .  A
O2147     Co2152   2.060       .  S
O2148      C2155   1.280       .  A
O2148     Co2151   2.052       .  S
Co2149     O2153   2.079       .  S
Co2150     O2153   2.080       .  S
Co2151     O2153   2.095       .  S
Co2152     O2153   2.093       .  S
C2154      C2168   1.506       .  S
C2155      C2251   1.497       .  S
C2156      C2202   1.489       .  S
C2157      C2242   1.491       .  S
C2158      C2166   1.501       .  S
C2158      C2159   1.438       .  A
C2158      C2991   1.433       .  A
C2159      C2204   1.539       .  S
C2159      C2160   1.452       .  A
C2160      C2213   1.514       .  S
C2161      C2186   1.536       .  S
C2161      C2990   1.438       .  A
C2162      C2193   1.504       .  S
C2162      C2989   1.437       .  A
C2163      C2986   1.433       .  A
C2164      C2454   1.489       .  S
C2164      C2165   1.390       .  A
C2164      C2997   1.389   1_545  A
C2165      C2994   1.414       .  A
C2165      H2170   1.075       .  S
C2166      C2993   1.415       .  A
C2166      C2167   1.424       .  A
C2167      C2168   1.407       .  A
C2167      H2171   1.078       .  S
C2168      C2169   1.419       .  A
C2169      C2992   1.389       .  A
C2169      H2172   1.075       .  S
C2173      C2453   1.490       .  S
C2173      C2178   1.407       .  A
C2174      C2175   1.407   1_554  A
C2174      H2179   1.083   1_554  S
C2175      C2176   1.399       .  A
C2176      C2177   1.413   1_556  A
C2176      H2180   1.076       .  S
C2178      H2181   1.074       .  S
C2182      C2425   1.479       .  S
C2182      C3011   1.383       .  A
C2182      C2187   1.413       .  A
C2183      C3010   1.379       .  A
C2183      C2184   1.380       .  A
C2183      H2188   1.085       .  S
C2184      C2185   1.410       .  A
C2185      C2186   1.416       .  A
C2185      H2189   1.073       .  S
C2186      C3015   1.426       .  A
C2187      C3014   1.425       .  A
C2187      H2190   1.074       .  S
C2191      C2423   1.481       .  S
C2191      C2192   1.395       .  A
C2191      C2196   1.385       .  A
C2192      C2193   1.419       .  A
C2192      H2197   1.073       .  S
C2193      C2194   1.425       .  A
C2194      C2195   1.403       .  A
C2194      H2198   1.079       .  S
C2195      C2196   1.394       .  A
C2196      H2199   1.072       .  S
C2200      C2483   1.477       .  S
C2200      C2201   1.387       .  A
C2200      C2205   1.408       .  A
C2201      C2202   1.380       .  A
C2201      H2206   1.084       .  S
C2202      C2203   1.419       .  A
C2203      C2204   1.435       .  A
C2203      H2207   1.076       .  S
C2204      C2205   1.423       .  A
C2205      H2208   1.076       .  S
C2209      C2481   1.459       .  S
C2209      C2214   1.396       .  A
C2210      C2211   1.379       .  A
C2210      H2215   1.077       .  S
C2211      C2212   1.417       .  A
C2212      H2216   1.079       .  S
C2213      C2214   1.411       .  A
C2214      H2217   1.076       .  S
C2218      C2235   1.505       .  S
C2218      C2223   1.438       .  A
C2219      C2220   1.425       .  A
C2220      C2271   1.515   1_556  S
C2221      C2253   1.485       .  S
C2221      C2222   1.426       .  A
C2222      C2246   1.506       .  S
C2223      C2226   1.525   1_556  S
C2224      C2225   1.416       .  A
C2225      C2226   1.418   1_556  A
C2225      H2230   1.079       .  S
C2227      C2228   1.408       .  A
C2227      H2231   1.073       .  S
C2228      C2467   1.477       .  S
C2228      C2229   1.388       .  A
C2229      H2232   1.080       .  S
C2233      C2234   1.406       .  A
C2233      C2238   1.396       .  A
C2234      C2235   1.415       .  A
C2234      H2239   1.082       .  S
C2235      C2236   1.419       .  A
C2236      C2237   1.400       .  A
C2236      H2240   1.077       .  S
C2237      C2426   1.478       .  S
C2237      C2238   1.381       .  A
C2238      H2241   1.081       .  S
C2242      C2243   1.386       .  A
C2242      C2247   1.406       .  A
C2243      H2248   1.064       .  S
C2244      C2465   1.474       .  S
C2244      C2245   1.406       .  A
C2245      H2249   1.078       .  S
C2246      C2247   1.424       .  A
C2247      H2250   1.080       .  S
C2251      C2252   1.401       .  A
C2251      C2256   1.402       .  A
C2252      C2253   1.425       .  A
C2252      H2257   1.077       .  S
C2253      C2254   1.411       .  A
C2254      C2255   1.384       .  A
C2254      H2258   1.077       .  S
C2255      C2436   1.477       .  S
C2255      C2256   1.394       .  A
C2256      H2259   1.067       .  S
C2260      C2424   1.474       .  S
C2260      C2261   1.389       .  A
C2260      C2265   1.384       .  A
C2261      C2262   1.413       .  A
C2261      H2266   1.073       .  S
C2263      C2264   1.401       .  A
C2263      H2267   1.079       .  S
C2265      H2268   1.074       .  S
C2269      C2270   1.401       .  A
C2269      C2274   1.401       .  A
C2270      C2271   1.415   1_556  A
C2270      H2275   1.077       .  S
C2272      C2273   1.402       .  A
C2272      H2276   1.073       .  S
C2273      C2437   1.474       .  S
C2274      H2277   1.084       .  S
C2278      C2333   1.498       .  S
C2278      C2279   1.422       .  A
C2278      C2283   1.430       .  A
C2279      C2288   1.503       .  S
C2279      C2280   1.418       .  A
C2280      C2322   1.492       .  S
C2280      C2281   1.432       .  A
C2281      C2297   1.518       .  S
C2281      C2282   1.439       .  A
C2282      C2315   1.507       .  S
C2282      C2283   1.436       .  A
C2283      C2306   1.511       .  S
C2284      C2285   1.412       .  A
C2284      C2289   1.407       .  A
C2285      C2286   1.381       .  A
C2285      H2290   1.077       .  S
C2286      C2409   1.474       .  S
C2286      C2287   1.391       .  A
C2287      C2288   1.414       .  A
C2287      H2291   1.077       .  S
C2288      C2289   1.424       .  A
C2289      H2292   1.078       .  S
C2293      C2466   1.483       .  S
C2293      C2294   1.389       .  A
C2293      C2298   1.417       .  A
C2294      C2295   1.374       .  A
C2294      H2299   1.072       .  S
C2295      C2296   1.395       .  A
C2296      C2297   1.410       .  A
C2296      H2300   1.075       .  S
C2297      C2298   1.430       .  A
C2298      H2301   1.079       .  S
C2302      C2303   1.390       .  A
C2302      C2307   1.393       .  A
C2303      C2304   1.420       .  A
C2303      H2308   1.073       .  S
C2304      C2455   1.515       .  S
C2304      C2305   1.414       .  A
C2305      C2306   1.430       .  A
C2305      H2309   1.080       .  S
C2306      C2307   1.416       .  A
C2307      H2310   1.074       .  S
C2311      C2464   1.444       .  S
C2311      C2312   1.386       .  A
C2311      C2316   1.400       .  A
C2312      C2313   1.387       .  A
C2312      H2317   1.084       .  S
C2313      C2314   1.403       .  A
C2314      C2315   1.415       .  A
C2314      H2318   1.072       .  S
C2315      C2316   1.403       .  A
C2316      H2319   1.075       .  S
C2320      C2321   1.402       .  A
C2320      C2325   1.389       .  A
C2321      C2322   1.419       .  A
C2321      H2326   1.083       .  S
C2322      C2323   1.415       .  A
C2323      C2324   1.393       .  A
C2323      H2327   1.077       .  S
C2324      C2407   1.462       .  S
C2324      C2325   1.374       .  A
C2325      H2328   1.080       .  S
C2329      C2330   1.375       .  A
C2329      C2334   1.396       .  A
C2330      C2331   1.394       .  A
C2330      H2335   1.077       .  S
C2331      C2452   1.475       .  S
C2331      C2332   1.401       .  A
C2332      C2333   1.421       .  A
C2332      H2336   1.080       .  S
C2333      C2334   1.420       .  A
C2334      H2337   1.076       .  S
C2338      C2355   1.492       .  S
C2338      C2339   1.433       .  A
C2338      C3171   1.420       .  A
C2339      C2364   1.514       .  S
C2339      C2340   1.434       .  A
C2340      C2393   1.506       .  S
C2341      C2384   1.506       .  S
C2341      C3170   1.425       .  A
C2342      C2373   1.497       .  S
C2342      C3169   1.425       .  A
C2343      C2348   1.495       .  S
C2343      C3166   1.420   1_545  A
C2344      C2408   1.471       .  S
C2344      C2345   1.385       .  A
C2344      C2349   1.387       .  A
C2345      H2350   1.079       .  S
C2346      C2347   1.406       .  A
C2347      H2351   1.079       .  S
C2348      C2349   1.410       .  A
C2349      H2352   1.077       .  S
C2353      C2406   1.460       .  S
C2353      C2354   1.401       .  A
C2353      C3186   1.378   1_545  A
C2354      C3183   1.417   1_545  A
C2354      H2359   1.076       .  S
C2355      C3182   1.418       .  A
C2355      C2356   1.403       .  A
C2356      C2357   1.393       .  A
C2356      H2360   1.076       .  S
C2357      C2358   1.381       .  A
C2358      C3181   1.378       .  A
C2358      H2361   1.083       .  S
C2362      C2363   1.401       .  A
C2362      C2367   1.397       .  A
C2363      C2364   1.409       .  A
C2363      H2368   1.072       .  S
C2364      C2365   1.407       .  A
C2365      C2366   1.409       .  A
C2365      H2369   1.076       .  S
C2366      C2482   1.475       .  S
C2366      C2367   1.398       .  A
C2367      H2370   1.081       .  S
C2371      C2438   1.477       .  S
C2371      C2372   1.400       .  A
C2371      C2376   1.396       .  A
C2372      C2373   1.419       .  A
C2372      H2377   1.078       .  S
C2373      C2374   1.420       .  A
C2374      C2375   1.395       .  A
C2374      H2378   1.076       .  S
C2375      C2376   1.373       .  A
C2376      H2379   1.077       .  S
C2380      C2435   1.486       .  S
C2380      C3209   1.381   1_545  A
C2380      C2385   1.408       .  A
C2381      C3208   1.381       .  A
C2381      C2382   1.387       .  A
C2381      H2386   1.071       .  S
C2382      C2383   1.394       .  A
C2383      C2384   1.416       .  A
C2383      H2387   1.078       .  S
C2384      C3213   1.429       .  A
C2385      C3212   1.429   1_545  A
C2385      H2388   1.077       .  S
C2389      C2394   1.394       .  A
C2390      C2391   1.391       .  A
C2390      H2395   1.048       .  S
C2391      C2484   1.486       .  S
C2391      C2392   1.408       .  A
C2392      C2393   1.430       .  A
C2392      H2396   1.082       .  S
C2394      H2397   1.075       .  S
O2398      C2406   1.255       .  A
O2398     Co2418   1.972       .  S
O2399      C2407   1.258       .  A
O2399     Co2419   1.982       .  S
O2400      C2408   1.278       .  A
O2400     Co2420   2.012       .  S
O2401      C2409   1.281       .  A
O2401     Co2421   2.022       .  S
O2402      C2408   1.270       .  A
O2402     Co2419   1.984       .  S
O2403      C2409   1.268       .  A
O2403     Co2418   1.983       .  S
O2404      C2407   1.269       .  A
O2404     Co2421   1.975       .  S
O2405      C2406   1.270       .  A
O2405     Co2420   1.991       .  S
O2410      C2423   1.263       .  A
O2410     Co2418   1.983       .  S
O2411      C2424   1.264       .  A
O2411     Co2419   1.988       .  S
O2412      C2425   1.268       .  A
O2412     Co2420   1.981       .  S
O2413      C2426   1.272       .  A
O2413     Co2421   1.987       .  S
O2414      C2426   1.284       .  A
O2414     Co2419   2.029       .  S
O2415      C2425   1.286       .  A
O2415     Co2418   2.043       .  S
O2416      C2423   1.269       .  A
O2416     Co2421   2.012       .  S
O2417      C2424   1.267       .  A
O2417     Co2420   2.001       .  S
Co2418     O2422   2.083       .  S
Co2419     O2422   2.090       .  S
Co2420     O2422   2.081       .  S
Co2421     O2422   2.081       .  S
O2427      C2435   1.276       .  A
O2427     Co2447   2.004       .  S
O2428      C2436   1.270       .  A
O2428     Co2448   1.962       .  S
O2429      C2437   1.270       .  A
O2429     Co2449   1.989       .  S
O2430      C2438   1.278       .  A
O2430     Co2450   2.013       .  S
O2431      C2437   1.277       .  A
O2431     Co2448   2.011       .  S
O2432      C2438   1.268       .  A
O2432     Co2447   1.958       .  S
O2433      C2436   1.281       .  A
O2433     Co2450   2.006       .  S
O2434      C2435   1.274       .  A
O2434     Co2449   2.014       .  S
O2439      C2452   1.280       .  A
O2439     Co2447   2.011       .  S
O2440      C2453   1.282       .  A
O2440     Co2448   2.009       .  S
O2441      C2454   1.272       .  A
O2441     Co2449   2.001       .  S
O2442      C2455   1.265       .  A
O2442     Co2450   1.986       .  S
O2443      C2455   1.291       .  A
O2443     Co2448   2.063       .  S
O2444      C2454   1.277       .  A
O2444     Co2447   2.010       .  S
O2445      C2452   1.273       .  A
O2445     Co2450   1.972       .  S
O2446      C2453   1.278       .  A
O2446     Co2449   2.011       .  S
Co2447     O2451   2.083       .  S
Co2448     O2451   2.083       .  S
Co2449     O2451   2.084       .  S
Co2450     O2451   2.098       .  S
O2456      C2464   1.288       .  A
O2456     Co2476   2.050       .  S
O2457      C2465   1.290       .  A
O2457     Co2477   1.934       .  S
O2458      C2466   1.302       .  A
O2458     Co2478   2.064       .  S
O2459      C2467   1.268       .  A
O2459     Co2479   2.003       .  S
O2460      C2466   1.284       .  A
O2460     Co2477   2.021       .  S
O2461      C2467   1.258       .  A
O2461     Co2476   1.997       .  S
O2462      C2465   1.287       .  A
O2462     Co2479   2.040       .  S
O2463      C2464   1.293       .  A
O2463     Co2478   2.052       .  S
O2468      C2481   1.294       .  A
O2468     Co2476   2.034       .  S
O2469      C2482   1.300       .  A
O2469     Co2477   2.094       .  S
O2470      C2483   1.266       .  A
O2470     Co2478   2.033       .  S
O2471      C2484   1.273       .  A
O2471     Co2479   2.014       .  S
O2472      C2484   1.280       .  A
O2472     Co2477   2.010       .  S
O2473      C2483   1.286       .  A
O2473     Co2476   2.023       .  S
O2474      C2481   1.277       .  A
O2474     Co2479   1.971       .  S
O2475      C2482   1.263       .  A
O2475     Co2478   1.994       .  S
Co2476     O2480   2.009       .  S
Co2477     O2480   1.892       .  S
Co2478     O2480   2.012       .  S
Co2479     O2480   2.067       .  S
O2485      C2493   1.269       .  A
O2485     Co2505   1.974       .  S
O2486      C2494   1.274       .  A
O2486     Co2506   2.034       .  S
O2487      C2495   1.265       .  A
O2487     Co2507   1.964       .  S
O2488      C2496   1.322       .  A
O2488     Co2508   2.129       .  S
O2489      C2495   1.261       .  A
O2489     Co2506   1.990       .  S
O2490      C2496   1.268       .  A
O2490     Co2505   1.945       .  S
O2491      C2494   1.299       .  A
O2491     Co2508   2.026       .  S
O2492      C2493   1.274       .  A
O2492     Co2507   1.971       .  S
C2493      C2734   1.453       .  S
C2494      C2598   1.466       .  S
C2495      C2709   1.453       .  S
C2496      C2625   1.461       .  S
O2497      C2510   1.267       .  A
O2497     Co2505   1.960       .  S
O2498      C2511   1.328       .  A
O2498     Co2506   2.168       .  S
O2499      C2512   1.270       .  A
O2499     Co2507   1.976       .  S
O2500      C2513   1.266       .  A
O2500     Co2508   2.011       .  S
O2501      C2513   1.286       .  A
O2501     Co2506   1.982       .  S
O2502      C2512   1.280       .  A
O2502     Co2505   2.014       .  S
O2503      C2510   1.265       .  A
O2503     Co2508   2.002       .  S
O2504      C2511   1.264       .  A
O2504     Co2507   1.931       .  S
Co2505     O2509   1.948       .  S
Co2506     O2509   2.001       .  S
Co2507     O2509   1.924       .  S
Co2508     O2509   2.010       .  S
C2510      C2638   1.458       .  S
C2511      C2776   1.474       .  S
C2512      C2647   1.466       .  S
C2513      C2771   1.434       .  S
O2514      C2522   1.277       .  A
O2514     Co2534   2.003       .  S
O2515      C2523   1.298       .  A
O2515     Co2535   2.055       .  S
O2516      C2524   1.268       .  A
O2516     Co2536   1.969       .  S
O2517      C2525   1.279       .  A
O2517     Co2537   1.982       .  S
O2518      C2524   1.292       .  A
O2518     Co2535   2.041       .  S
O2519      C2525   1.287       .  A
O2519     Co2534   2.016       .  S
O2520      C2523   1.282       .  A
O2520     Co2537   1.980       .  S
O2521      C2522   1.282       .  A
O2521     Co2536   1.993       .  S
C2522      C2743   1.474       .  S
C2523      C2683   1.473       .  S
C2524      C2698   1.496       .  S
C2525      C2678   1.476       .  S
O2526      C2539   1.267       .  A
O2526     Co2534   1.963       .  S
O2527      C2540   1.280       .  A
O2527     Co2535   1.986       .  S
O2528      C2541   1.275       .  A
O2528     Co2536   2.004       .  S
O2529      C2542   1.304       .  A
O2529     Co2537   2.070       .  S
O2530      C2542   1.283       .  A
O2530     Co2535   1.988       .  S
O2531      C2541   1.279       .  A
O2531     Co2534   1.985       .  S
O2532      C2539   1.296       .  A
O2532     Co2537   2.051       .  S
O2533      C2540   1.286       .  A
O2533     Co2536   2.018       .  S
Co2534     O2538   2.012       .  S
Co2535     O2538   1.922       .  S
Co2536     O2538   2.008       .  S
Co2537     O2538   1.922       .  S
C2539      C2760   1.500       .  S
C2540      C2609   1.481       .  S
C2541      C2789   1.471       .  S
C2542      C2589   1.482       .  S
O2543      C2551   1.259       .  A
O2543     Co2563   1.968       .  S
O2544      C2552   1.272       .  A
O2544     Co2564   2.011       .  S
O2545      C2553   1.278       .  A
O2545     Co2565   2.009       .  S
O2546      C2554   1.277       .  A
O2546     Co2566   1.983       .  S
O2547      C2553   1.288       .  A
O2547     Co2564   2.020       .  S
O2548      C2554   1.276       .  A
O2548     Co2563   1.995       .  S
O2549      C2552   1.269       .  A
O2549     Co2566   1.994       .  S
O2550      C2551   1.277       .  A
O2550     Co2565   2.024       .  S
C2551      C2727   1.471       .  S
C2552      C2803   1.481       .  S
C2553      C2716   1.492       .  S
C2554      C2796   1.469       .  S
O2555      C2568   1.256       .  A
O2555     Co2563   1.959       .  S
O2556      C2569   1.257       .  A
O2556     Co2564   1.953       .  S
O2557      C2570   1.277       .  A
O2557     Co2565   2.006       .  S
O2558      C2571   1.282       .  A
O2558     Co2566   1.999       .  S
O2559      C2571   1.288       .  A
O2559     Co2564   2.030       .  S
O2560      C2570   1.286       .  A
O2560     Co2563   2.031       .  S
O2561      C2568   1.286       .  A
O2561     Co2566   2.059       .  S
O2562      C2569   1.281       .  A
O2562     Co2565   2.054       .  S
Co2563     O2567   2.078       .  S
Co2564     O2567   2.080       .  S
Co2565     O2567   2.095       .  S
Co2566     O2567   2.093       .  S
C2568      C2582   1.506       .  S
C2569      C2665   1.497       .  S
C2570      C2616   1.490       .  S
C2571      C2656   1.490       .  S
C2572      C2580   1.498       .  S
C2572      C2573   1.434   1_545  A
C2573      C2618   1.540       .  S
C2573      C2574   1.448   1_554  A
C2574      C2627   1.502       .  S
C2574      C2989   1.445   1_565  A
C2575      C2600   1.539       .  S
C2575      C2988   1.445   1_545  A
C2576      C2607   1.505       .  S
C2576      C2991   1.436       .  A
C2577      C3005   1.522       .  S
C2577      C2990   1.436   1_554  A
C2578      C2868   1.491       .  S
C2578      C2579   1.391       .  A
C2579      H2584   1.075       .  S
C2580      C2581   1.424   1_545  A
C2581      C2582   1.407       .  A
C2581      H2585   1.078       .  S
C2582      C2583   1.419       .  A
C2583      H2586   1.075       .  S
C2587      C2867   1.491       .  S
C2587      C3002   1.398       .  A
C2587      C2592   1.408       .  A
C2588      C3001   1.398       .  A
C2588      C2589   1.407       .  A
C2588      H2593   1.083       .  S
C2589      C2590   1.400       .  A
C2590      C2591   1.414       .  A
C2590      H2594   1.076       .  S
C2591      C2991   1.522       .  S
C2591      C3006   1.427       .  A
C2592      C3005   1.427       .  A
C2592      H2595   1.074       .  S
C2596      C2839   1.477       .  S
C2596      C2601   1.413       .  A
C2597      C2598   1.383   1_545  A
C2597      H2602   1.084       .  S
C2598      C2599   1.412       .  A
C2599      C2600   1.419   1_565  A
C2599      H2603   1.073       .  S
C2601      H2604   1.074       .  S
C2605      C2837   1.481       .  S
C2605      C2606   1.395       .  A
C2605      C2610   1.384       .  A
C2606      C2607   1.419       .  A
C2606      H2611   1.073       .  S
C2607      C2608   1.425       .  A
C2608      C2609   1.403       .  A
C2608      H2612   1.079       .  S
C2609      C2610   1.393       .  A
C2610      H2613   1.072       .  S
C2614      C2897   1.478       .  S
C2614      C2615   1.387       .  A
C2614      C2619   1.408       .  A
C2615      C2616   1.380       .  A
C2615      H2620   1.084       .  S
C2616      C2617   1.420       .  A
C2617      C2618   1.435       .  A
C2617      H2621   1.076       .  S
C2618      C2619   1.423       .  A
C2619      H2622   1.076       .  S
C2623      C2895   1.458       .  S
C2623      C3038   1.377   1_554  A
C2623      C2628   1.398       .  A
C2624      C3037   1.377       .  A
C2624      C2625   1.378       .  A
C2624      H2629   1.079       .  S
C2625      C2626   1.406       .  A
C2626      C3041   1.420       .  A
C2626      H2630   1.079       .  S
C2627      C3040   1.420       .  A
C2627      C2628   1.413   1_556  A
C2628      H2631   1.076       .  S
C2632      C2649   1.506       .  S
C2632      C2637   1.438       .  A
C2633      C2634   1.425       .  A
C2634      C2685   1.512       .  S
C2634      C3049   1.423       .  A
C2635      C2667   1.482       .  S
C2635      C3048   1.423   1_554  A
C2635      C2636   1.422       .  A
C2636      C2660   1.507       .  S
C2637      C2640   1.516       .  S
C2638      C2639   1.410       .  A
C2638      C3057   1.384       .  A
C2639      C2640   1.414       .  A
C2639      H2644   1.079       .  S
C2640      C3055   1.421       .  A
C2641      C3054   1.421       .  A
C2641      C2642   1.408       .  A
C2641      H2645   1.074       .  S
C2642      C2881   1.475       .  S
C2642      C2643   1.379       .  A
C2643      C3052   1.384   1_554  A
C2643      H2646   1.082       .  S
C2647      C2648   1.407       .  A
C2647      C2652   1.396       .  A
C2648      C2649   1.416       .  A
C2648      H2653   1.082       .  S
C2649      C2650   1.420       .  A
C2650      C2651   1.400       .  A
C2650      H2654   1.077       .  S
C2651      C2840   1.476       .  S
C2651      C2652   1.376       .  A
C2652      H2655   1.080       .  S
C2656      C2657   1.386       .  A
C2656      C2661   1.404       .  A
C2657      H2662   1.060       .  S
C2658      C2879   1.476       .  S
C2658      C2659   1.406       .  A
C2659      H2663   1.078       .  S
C2660      C2661   1.423       .  A
C2661      H2664   1.080       .  S
C2665      C2666   1.401       .  A
C2665      C2670   1.403       .  A
C2666      C2667   1.424       .  A
C2666      H2671   1.077       .  S
C2667      C2668   1.410       .  A
C2668      C2669   1.382       .  A
C2668      H2672   1.077       .  S
C2669      C2850   1.476       .  S
C2669      C2670   1.394       .  A
C2670      H2673   1.067       .  S
C2674      C2838   1.474       .  S
C2674      C2675   1.389       .  A
C2674      C2679   1.383       .  A
C2675      C2676   1.414       .  A
C2675      H2680   1.072       .  S
C2677      C2678   1.401       .  A
C2677      H2681   1.079       .  S
C2679      H2682   1.074       .  S
C2683      C2684   1.400       .  A
C2683      C2688   1.401       .  A
C2684      C2685   1.414       .  A
C2684      H2689   1.077       .  S
C2685      C3100   1.420       .  A
C2686      C3099   1.420       .  A
C2686      C2687   1.401       .  A
C2686      H2690   1.073       .  S
C2687      C2851   1.474       .  S
C2687      C3102   1.389   1_554  A
C2688      C3101   1.389       .  A
C2688      H2691   1.084       .  S
C2692      C2747   1.495       .  S
C2692      C2693   1.419       .  A
C2692      C2697   1.430       .  A
C2693      C2702   1.505       .  S
C2693      C2694   1.416       .  A
C2694      C2736   1.483       .  S
C2694      C2695   1.430       .  A
C2695      C2711   1.520       .  S
C2695      C2696   1.436       .  A
C2696      C2729   1.505       .  S
C2696      C2697   1.435       .  A
C2697      C2720   1.508       .  S
C2698      C2699   1.411       .  A
C2698      C2703   1.407       .  A
C2699      C2700   1.380       .  A
C2699      H2704   1.077       .  S
C2700      C2823   1.475       .  S
C2700      C2701   1.391       .  A
C2701      C2702   1.414       .  A
C2701      H2705   1.077       .  S
C2702      C2703   1.425       .  A
C2703      H2706   1.078       .  S
C2707      C2880   1.480       .  S
C2707      C2708   1.386       .  A
C2707      C2712   1.417       .  A
C2708      C2709   1.370       .  A
C2708      H2713   1.071       .  S
C2709      C2710   1.395       .  A
C2710      C2711   1.411       .  A
C2710      H2714   1.073       .  S
C2711      C2712   1.430       .  A
C2712      H2715   1.079       .  S
C2716      C2717   1.391       .  A
C2716      C2721   1.392       .  A
C2717      C2718   1.421       .  A
C2717      H2722   1.074       .  S
C2718      C2869   1.515       .  S
C2718      C2719   1.413       .  A
C2719      C2720   1.429       .  A
C2719      H2723   1.080       .  S
C2720      C2721   1.416       .  A
C2721      H2724   1.074       .  S
C2725      C2878   1.443       .  S
C2725      C2726   1.386       .  A
C2725      C2730   1.400       .  A
C2726      C2727   1.388       .  A
C2726      H2731   1.084       .  S
C2727      C2728   1.403       .  A
C2728      C2729   1.415       .  A
C2728      H2732   1.072       .  S
C2729      C2730   1.402       .  A
C2730      H2733   1.075       .  S
C2734      C2735   1.393       .  A
C2734      C2739   1.388       .  A
C2735      C2736   1.414       .  A
C2735      H2740   1.082       .  S
C2736      C2737   1.416       .  A
C2737      C2738   1.392       .  A
C2737      H2741   1.076       .  S
C2738      C2821   1.460       .  S
C2738      C2739   1.372       .  A
C2739      H2742   1.079       .  S
C2743      C2744   1.375       .  A
C2743      C2748   1.396       .  A
C2744      C2745   1.395       .  A
C2744      H2749   1.077       .  S
C2745      C2866   1.475       .  S
C2745      C2746   1.400       .  A
C2746      C2747   1.420       .  A
C2746      H2750   1.080       .  S
C2747      C2748   1.420       .  A
C2748      H2751   1.076       .  S
C2752      C2769   1.495       .  S
C2752      C2753   1.433       .  A
C2753      C2778   1.512       .  S
C2753      C2754   1.434       .  A
C2754      C2807   1.506       .  S
C2755      C2798   1.506   1_545  S
C2756      C2787   1.497       .  S
C2757      C2762   1.497       .  S
C2758      C2822   1.472       .  S
C2758      C2759   1.385       .  A
C2758      C2763   1.387       .  A
C2759      H2764   1.079       .  S
C2760      C2761   1.407       .  A
C2761      H2765   1.079       .  S
C2762      C2763   1.411       .  A
C2763      H2766   1.077       .  S
C2767      C2820   1.461       .  S
C2767      C2768   1.402       .  A
C2768      H2773   1.076       .  S
C2769      C2770   1.405       .  A
C2770      C2771   1.394       .  A
C2770      H2774   1.076       .  S
C2771      C2772   1.379       .  A
C2772      H2775   1.083       .  S
C2776      C2777   1.399       .  A
C2776      C2781   1.396       .  A
C2777      C2778   1.408       .  A
C2777      H2782   1.072       .  S
C2778      C2779   1.407       .  A
C2779      C2780   1.409       .  A
C2779      H2783   1.076       .  S
C2780      C2896   1.474       .  S
C2780      C2781   1.397       .  A
C2781      H2784   1.081       .  S
C2785      C2852   1.476       .  S
C2785      C2786   1.399       .  A
C2785      C2790   1.396       .  A
C2786      C2787   1.419       .  A
C2786      H2791   1.078       .  S
C2787      C2788   1.421       .  A
C2788      C2789   1.395       .  A
C2788      H2792   1.076       .  S
C2789      C2790   1.372       .  A
C2790      H2793   1.077       .  S
C2794      C2849   1.487       .  S
C2794      C2799   1.408       .  A
C2795      C2796   1.387       .  A
C2795      H2800   1.072       .  S
C2796      C2797   1.394       .  A
C2797      C2798   1.416       .  A
C2797      H2801   1.078       .  S
C2799      H2802   1.077       .  S
C2803      C2808   1.395       .  A
C2804      C2805   1.391       .  A
C2804      H2809   1.038       .  S
C2805      C2898   1.484       .  S
C2805      C2806   1.407       .  A
C2806      C2807   1.429       .  A
C2806      H2810   1.082       .  S
C2808      H2811   1.076       .  S
O2812      C2820   1.255       .  A
O2812     Co2832   1.973       .  S
O2813      C2821   1.259       .  A
O2813     Co2833   1.985       .  S
O2814      C2822   1.279       .  A
O2814     Co2834   2.013       .  S
O2815      C2823   1.282       .  A
O2815     Co2835   2.025       .  S
O2816      C2822   1.270       .  A
O2816     Co2833   1.984       .  S
O2817      C2823   1.268       .  A
O2817     Co2832   1.983       .  S
O2818      C2821   1.268       .  A
O2818     Co2835   1.972       .  S
O2819      C2820   1.271       .  A
O2819     Co2834   1.991       .  S
O2824      C2837   1.263       .  A
O2824     Co2832   1.983       .  S
O2825      C2838   1.264       .  A
O2825     Co2833   1.989       .  S
O2826      C2839   1.268       .  A
O2826     Co2834   1.980       .  S
O2827      C2840   1.272       .  A
O2827     Co2835   1.986       .  S
O2828      C2840   1.285       .  A
O2828     Co2833   2.026       .  S
O2829      C2839   1.287       .  A
O2829     Co2832   2.041       .  S
O2830      C2837   1.268       .  A
O2830     Co2835   2.011       .  S
O2831      C2838   1.267       .  A
O2831     Co2834   2.001       .  S
Co2832     O2836   2.082       .  S
Co2833     O2836   2.088       .  S
Co2834     O2836   2.079       .  S
Co2835     O2836   2.080       .  S
O2841      C2849   1.275       .  A
O2841     Co2861   2.003       .  S
O2842      C2850   1.270       .  A
O2842     Co2862   1.963       .  S
O2843      C2851   1.270       .  A
O2843     Co2863   1.989       .  S
O2844      C2852   1.277       .  A
O2844     Co2864   2.010       .  S
O2845      C2851   1.277       .  A
O2845     Co2862   2.010       .  S
O2846      C2852   1.268       .  A
O2846     Co2861   1.959       .  S
O2847      C2850   1.280       .  A
O2847     Co2864   2.004       .  S
O2848      C2849   1.274       .  A
O2848     Co2863   2.015       .  S
O2853      C2866   1.280       .  A
O2853     Co2861   2.011       .  S
O2854      C2867   1.283       .  A
O2854     Co2862   2.011       .  S
O2855      C2868   1.273       .  A
O2855     Co2863   2.002       .  S
O2856      C2869   1.265       .  A
O2856     Co2864   1.986       .  S
O2857      C2869   1.291       .  A
O2857     Co2862   2.063       .  S
O2858      C2868   1.278       .  A
O2858     Co2861   2.012       .  S
O2859      C2866   1.272       .  A
O2859     Co2864   1.971       .  S
O2860      C2867   1.278       .  A
O2860     Co2863   2.010       .  S
Co2861     O2865   2.083       .  S
Co2862     O2865   2.083       .  S
Co2863     O2865   2.085       .  S
Co2864     O2865   2.098       .  S
O2870      C2878   1.287       .  A
O2870     Co2890   2.050       .  S
O2871      C2879   1.290       .  A
O2871     Co2891   1.934       .  S
O2872      C2880   1.302       .  A
O2872     Co2892   2.062       .  S
O2873      C2881   1.270       .  A
O2873     Co2893   1.999       .  S
O2874      C2880   1.283       .  A
O2874     Co2891   2.016       .  S
O2875      C2881   1.257       .  A
O2875     Co2890   1.996       .  S
O2876      C2879   1.287       .  A
O2876     Co2893   2.041       .  S
O2877      C2878   1.294       .  A
O2877     Co2892   2.053       .  S
O2882      C2895   1.295       .  A
O2882     Co2890   2.038       .  S
O2883      C2896   1.300       .  A
O2883     Co2891   2.092       .  S
O2884      C2897   1.266       .  A
O2884     Co2892   2.034       .  S
O2885      C2898   1.272       .  A
O2885     Co2893   2.010       .  S
O2886      C2898   1.280       .  A
O2886     Co2891   2.010       .  S
O2887      C2897   1.286       .  A
O2887     Co2890   2.022       .  S
O2888      C2895   1.275       .  A
O2888     Co2893   1.967       .  S
O2889      C2896   1.263       .  A
O2889     Co2892   1.992       .  S
Co2890     O2894   2.008       .  S
Co2891     O2894   1.890       .  S
Co2892     O2894   2.009       .  S
Co2893     O2894   2.065       .  S
O2899      C2907   1.269       .  A
O2899     Co2919   1.974       .  S
O2900      C2908   1.274       .  A
O2900     Co2920   2.034       .  S
O2901      C2909   1.265       .  A
O2901     Co2921   1.963       .  S
O2902      C2910   1.322       .  A
O2902     Co2922   2.129       .  S
O2903      C2909   1.261       .  A
O2903     Co2920   1.990       .  S
O2904      C2910   1.268       .  A
O2904     Co2919   1.945       .  S
O2905      C2908   1.299       .  A
O2905     Co2922   2.026       .  S
O2906      C2907   1.274       .  A
O2906     Co2921   1.971       .  S
C2907      C3148   1.453       .  S
C2908      C3012   1.466       .  S
C2909      C3123   1.453       .  S
C2910      C3039   1.461       .  S
O2911      C2924   1.267       .  A
O2911     Co2919   1.960       .  S
O2912      C2925   1.328       .  A
O2912     Co2920   2.168       .  S
O2913      C2926   1.270       .  A
O2913     Co2921   1.976       .  S
O2914      C2927   1.266       .  A
O2914     Co2922   2.011       .  S
O2915      C2927   1.286       .  A
O2915     Co2920   1.982       .  S
O2916      C2926   1.280       .  A
O2916     Co2919   2.014       .  S
O2917      C2924   1.265       .  A
O2917     Co2922   2.002       .  S
O2918      C2925   1.264       .  A
O2918     Co2921   1.931       .  S
Co2919     O2923   1.948       .  S
Co2920     O2923   2.001       .  S
Co2921     O2923   1.924       .  S
Co2922     O2923   2.010       .  S
C2924      C3052   1.458       .  S
C2925      C3190   1.474       .  S
C2926      C3061   1.466       .  S
C2927      C3185   1.434       .  S
O2928      C2936   1.277       .  A
O2928     Co2948   2.003       .  S
O2929      C2937   1.298       .  A
O2929     Co2949   2.055       .  S
O2930      C2938   1.268       .  A
O2930     Co2950   1.969       .  S
O2931      C2939   1.279       .  A
O2931     Co2951   1.982       .  S
O2932      C2938   1.292       .  A
O2932     Co2949   2.041       .  S
O2933      C2939   1.287       .  A
O2933     Co2948   2.016       .  S
O2934      C2937   1.282       .  A
O2934     Co2951   1.980       .  S
O2935      C2936   1.282       .  A
O2935     Co2950   1.993       .  S
C2936      C3157   1.474       .  S
C2937      C3097   1.473       .  S
C2938      C3112   1.496       .  S
C2939      C3092   1.476       .  S
O2940      C2953   1.267       .  A
O2940     Co2948   1.963       .  S
O2941      C2954   1.280       .  A
O2941     Co2949   1.986       .  S
O2942      C2955   1.275       .  A
O2942     Co2950   2.004       .  S
O2943      C2956   1.304       .  A
O2943     Co2951   2.070       .  S
O2944      C2956   1.283       .  A
O2944     Co2949   1.988       .  S
O2945      C2955   1.279       .  A
O2945     Co2948   1.985       .  S
O2946      C2953   1.296       .  A
O2946     Co2951   2.051       .  S
O2947      C2954   1.286       .  A
O2947     Co2950   2.018       .  S
Co2948     O2952   2.012       .  S
Co2949     O2952   1.922       .  S
Co2950     O2952   2.008       .  S
Co2951     O2952   1.922       .  S
C2953      C3174   1.500       .  S
C2954      C3023   1.481       .  S
C2955      C3203   1.471       .  S
C2956      C3003   1.482       .  S
O2957      C2965   1.259       .  A
O2957     Co2977   1.968       .  S
O2958      C2966   1.272       .  A
O2958     Co2978   2.011       .  S
O2959      C2967   1.278       .  A
O2959     Co2979   2.009       .  S
O2960      C2968   1.277       .  A
O2960     Co2980   1.983       .  S
O2961      C2967   1.288       .  A
O2961     Co2978   2.020       .  S
O2962      C2968   1.276       .  A
O2962     Co2977   1.995       .  S
O2963      C2966   1.269       .  A
O2963     Co2980   1.994       .  S
O2964      C2965   1.277       .  A
O2964     Co2979   2.024       .  S
C2965      C3141   1.471       .  S
C2966      C3217   1.481       .  S
C2967      C3130   1.492       .  S
C2968      C3210   1.469       .  S
O2969      C2982   1.256       .  A
O2969     Co2977   1.959       .  S
O2970      C2983   1.257       .  A
O2970     Co2978   1.953       .  S
O2971      C2984   1.277       .  A
O2971     Co2979   2.006       .  S
O2972      C2985   1.282       .  A
O2972     Co2980   1.999       .  S
O2973      C2985   1.288       .  A
O2973     Co2978   2.030       .  S
O2974      C2984   1.286       .  A
O2974     Co2977   2.031       .  S
O2975      C2982   1.286       .  A
O2975     Co2980   2.059       .  S
O2976      C2983   1.281       .  A
O2976     Co2979   2.053       .  S
Co2977     O2981   2.078       .  S
Co2978     O2981   2.080       .  S
Co2979     O2981   2.095       .  S
Co2980     O2981   2.093       .  S
C2982      C2996   1.506       .  S
C2983      C3079   1.497       .  S
C2984      C3030   1.490       .  S
C2985      C3070   1.490       .  S
C2986      C2994   1.498       .  S
C2986      C2987   1.434   1_545  A
C2987      C3032   1.540       .  S
C2987      C2988   1.448       .  A
C2988      C3041   1.502       .  S
C2989      C3014   1.539       .  S
C2990      C3021   1.505       .  S
C2992      C3282   1.491       .  S
C2992      C2993   1.391       .  A
C2993      H2998   1.075       .  S
C2994      C2995   1.424   1_545  A
C2995      C2996   1.407       .  A
C2995      H2999   1.078       .  S
C2996      C2997   1.419       .  A
C2997      H3000   1.075       .  S
C3001      C3281   1.491       .  S
C3001      C3006   1.408       .  A
C3002      C3003   1.407   1_554  A
C3002      H3007   1.083   1_554  S
C3003      C3004   1.400       .  A
C3004      C3005   1.414   1_556  A
C3004      H3008   1.076       .  S
C3006      H3009   1.074       .  S
C3010      C3253   1.477       .  S
C3010      C3015   1.413       .  A
C3011      C3012   1.383   1_545  A
C3011      H3016   1.084       .  S
C3012      C3013   1.412       .  A
C3013      C3014   1.419   1_565  A
C3013      H3017   1.073       .  S
C3015      H3018   1.074       .  S
C3019      C3251   1.481       .  S
C3019      C3020   1.395       .  A
C3019      C3024   1.384       .  A
C3020      C3021   1.419       .  A
C3020      H3025   1.073       .  S
C3021      C3022   1.425       .  A
C3022      C3023   1.403       .  A
C3022      H3026   1.079       .  S
C3023      C3024   1.393       .  A
C3024      H3027   1.072       .  S
C3028      C3311   1.478       .  S
C3028      C3029   1.387       .  A
C3028      C3033   1.408       .  A
C3029      C3030   1.380       .  A
C3029      H3034   1.084       .  S
C3030      C3031   1.420       .  A
C3031      C3032   1.435       .  A
C3031      H3035   1.076       .  S
C3032      C3033   1.423       .  A
C3033      H3036   1.076       .  S
C3037      C3309   1.458       .  S
C3037      C3042   1.398       .  A
C3038      C3039   1.378       .  A
C3038      H3043   1.079       .  S
C3039      C3040   1.406       .  A
C3040      H3044   1.079       .  S
C3041      C3042   1.413       .  A
C3042      H3045   1.076       .  S
C3046      C3063   1.506       .  S
C3046      C3051   1.438       .  A
C3047      C3048   1.425       .  A
C3048      C3099   1.512   1_556  S
C3049      C3081   1.482       .  S
C3049      C3050   1.422       .  A
C3050      C3074   1.507       .  S
C3051      C3054   1.516   1_556  S
C3052      C3053   1.410       .  A
C3053      C3054   1.414   1_556  A
C3053      H3058   1.079       .  S
C3055      C3056   1.408       .  A
C3055      H3059   1.074       .  S
C3056      C3295   1.475       .  S
C3056      C3057   1.379       .  A
C3057      H3060   1.082       .  S
C3061      C3062   1.407       .  A
C3061      C3066   1.396       .  A
C3062      C3063   1.416       .  A
C3062      H3067   1.082       .  S
C3063      C3064   1.420       .  A
C3064      C3065   1.400       .  A
C3064      H3068   1.077       .  S
C3065      C3254   1.476       .  S
C3065      C3066   1.376       .  A
C3066      H3069   1.080       .  S
C3070      C3071   1.386       .  A
C3070      C3075   1.404       .  A
C3071      H3076   1.061       .  S
C3072      C3293   1.475       .  S
C3072      C3073   1.406       .  A
C3073      H3077   1.078       .  S
C3074      C3075   1.423       .  A
C3075      H3078   1.080       .  S
C3079      C3080   1.401       .  A
C3079      C3084   1.403       .  A
C3080      C3081   1.424       .  A
C3080      H3085   1.077       .  S
C3081      C3082   1.410       .  A
C3082      C3083   1.382       .  A
C3082      H3086   1.077       .  S
C3083      C3264   1.476       .  S
C3083      C3084   1.394       .  A
C3084      H3087   1.067       .  S
C3088      C3252   1.474       .  S
C3088      C3089   1.389       .  A
C3088      C3093   1.383       .  A
C3089      C3090   1.414       .  A
C3089      H3094   1.072       .  S
C3091      C3092   1.401       .  A
C3091      H3095   1.079       .  S
C3093      H3096   1.074       .  S
C3097      C3098   1.400       .  A
C3097      C3102   1.401       .  A
C3098      C3099   1.414   1_556  A
C3098      H3103   1.077       .  S
C3100      C3101   1.401       .  A
C3100      H3104   1.073       .  S
C3101      C3265   1.474       .  S
C3102      H3105   1.084       .  S
C3106      C3161   1.495       .  S
C3106      C3107   1.419       .  A
C3106      C3111   1.430       .  A
C3107      C3116   1.505       .  S
C3107      C3108   1.416       .  A
C3108      C3150   1.483       .  S
C3108      C3109   1.430       .  A
C3109      C3125   1.520       .  S
C3109      C3110   1.436       .  A
C3110      C3143   1.505       .  S
C3110      C3111   1.435       .  A
C3111      C3134   1.508       .  S
C3112      C3113   1.411       .  A
C3112      C3117   1.407       .  A
C3113      C3114   1.380       .  A
C3113      H3118   1.077       .  S
C3114      C3237   1.475       .  S
C3114      C3115   1.391       .  A
C3115      C3116   1.414       .  A
C3115      H3119   1.077       .  S
C3116      C3117   1.425       .  A
C3117      H3120   1.078       .  S
C3121      C3294   1.480       .  S
C3121      C3122   1.386       .  A
C3121      C3126   1.417       .  A
C3122      C3123   1.370       .  A
C3122      H3127   1.071       .  S
C3123      C3124   1.395       .  A
C3124      C3125   1.411       .  A
C3124      H3128   1.073       .  S
C3125      C3126   1.430       .  A
C3126      H3129   1.079       .  S
C3130      C3131   1.391       .  A
C3130      C3135   1.392       .  A
C3131      C3132   1.421       .  A
C3131      H3136   1.073       .  S
C3132      C3283   1.515       .  S
C3132      C3133   1.413       .  A
C3133      C3134   1.429       .  A
C3133      H3137   1.080       .  S
C3134      C3135   1.416       .  A
C3135      H3138   1.074       .  S
C3139      C3292   1.443       .  S
C3139      C3140   1.386       .  A
C3139      C3144   1.400       .  A
C3140      C3141   1.388       .  A
C3140      H3145   1.084       .  S
C3141      C3142   1.403       .  A
C3142      C3143   1.415       .  A
C3142      H3146   1.072       .  S
C3143      C3144   1.402       .  A
C3144      H3147   1.075       .  S
C3148      C3149   1.393       .  A
C3148      C3153   1.388       .  A
C3149      C3150   1.414       .  A
C3149      H3154   1.082       .  S
C3150      C3151   1.416       .  A
C3151      C3152   1.392       .  A
C3151      H3155   1.076       .  S
C3152      C3235   1.460       .  S
C3152      C3153   1.372       .  A
C3153      H3156   1.079       .  S
C3157      C3158   1.375       .  A
C3157      C3162   1.396       .  A
C3158      C3159   1.395       .  A
C3158      H3163   1.077       .  S
C3159      C3280   1.475       .  S
C3159      C3160   1.400       .  A
C3160      C3161   1.420       .  A
C3160      H3164   1.080       .  S
C3161      C3162   1.420       .  A
C3162      H3165   1.076       .  S
C3166      C3183   1.495       .  S
C3166      C3167   1.433       .  A
C3167      C3192   1.512       .  S
C3167      C3168   1.434       .  A
C3168      C3221   1.506       .  S
C3169      C3212   1.506   1_545  S
C3170      C3201   1.497       .  S
C3171      C3176   1.497       .  S
C3172      C3236   1.472       .  S
C3172      C3173   1.385       .  A
C3172      C3177   1.387       .  A
C3173      H3178   1.079       .  S
C3174      C3175   1.406       .  A
C3175      H3179   1.079       .  S
C3176      C3177   1.411       .  A
C3177      H3180   1.077       .  S
C3181      C3234   1.461       .  S
C3181      C3182   1.402       .  A
C3182      H3187   1.076       .  S
C3183      C3184   1.405       .  A
C3184      C3185   1.394       .  A
C3184      H3188   1.076       .  S
C3185      C3186   1.379       .  A
C3186      H3189   1.083       .  S
C3190      C3191   1.399       .  A
C3190      C3195   1.396       .  A
C3191      C3192   1.408       .  A
C3191      H3196   1.072       .  S
C3192      C3193   1.407       .  A
C3193      C3194   1.409       .  A
C3193      H3197   1.076       .  S
C3194      C3310   1.474       .  S
C3194      C3195   1.397       .  A
C3195      H3198   1.081       .  S
C3199      C3266   1.476       .  S
C3199      C3200   1.399       .  A
C3199      C3204   1.396       .  A
C3200      C3201   1.419       .  A
C3200      H3205   1.078       .  S
C3201      C3202   1.421       .  A
C3202      C3203   1.395       .  A
C3202      H3206   1.076       .  S
C3203      C3204   1.372       .  A
C3204      H3207   1.077       .  S
C3208      C3263   1.487       .  S
C3208      C3213   1.408       .  A
C3209      C3210   1.387       .  A
C3209      H3214   1.072       .  S
C3210      C3211   1.394       .  A
C3211      C3212   1.416       .  A
C3211      H3215   1.078       .  S
C3213      H3216   1.077       .  S
C3217      C3222   1.395       .  A
C3218      C3219   1.391       .  A
C3218      H3223   1.038       .  S
C3219      C3312   1.484       .  S
C3219      C3220   1.407       .  A
C3220      C3221   1.429       .  A
C3220      H3224   1.082       .  S
C3222      H3225   1.076       .  S
O3226      C3234   1.255       .  A
O3226     Co3246   1.973       .  S
O3227      C3235   1.259       .  A
O3227     Co3247   1.985       .  S
O3228      C3236   1.279       .  A
O3228     Co3248   2.013       .  S
O3229      C3237   1.282       .  A
O3229     Co3249   2.025       .  S
O3230      C3236   1.270       .  A
O3230     Co3247   1.984       .  S
O3231      C3237   1.268       .  A
O3231     Co3246   1.983       .  S
O3232      C3235   1.268       .  A
O3232     Co3249   1.972       .  S
O3233      C3234   1.271       .  A
O3233     Co3248   1.991       .  S
O3238      C3251   1.263       .  A
O3238     Co3246   1.983       .  S
O3239      C3252   1.264       .  A
O3239     Co3247   1.989       .  S
O3240      C3253   1.268       .  A
O3240     Co3248   1.980       .  S
O3241      C3254   1.272       .  A
O3241     Co3249   1.986       .  S
O3242      C3254   1.285       .  A
O3242     Co3247   2.026       .  S
O3243      C3253   1.287       .  A
O3243     Co3246   2.041       .  S
O3244      C3251   1.268       .  A
O3244     Co3249   2.011       .  S
O3245      C3252   1.267       .  A
O3245     Co3248   2.001       .  S
Co3246     O3250   2.082       .  S
Co3247     O3250   2.088       .  S
Co3248     O3250   2.079       .  S
Co3249     O3250   2.080       .  S
O3255      C3263   1.275       .  A
O3255     Co3275   2.003       .  S
O3256      C3264   1.270       .  A
O3256     Co3276   1.963       .  S
O3257      C3265   1.270       .  A
O3257     Co3277   1.989       .  S
O3258      C3266   1.277       .  A
O3258     Co3278   2.010       .  S
O3259      C3265   1.277       .  A
O3259     Co3276   2.010       .  S
O3260      C3266   1.268       .  A
O3260     Co3275   1.959       .  S
O3261      C3264   1.280       .  A
O3261     Co3278   2.004       .  S
O3262      C3263   1.274       .  A
O3262     Co3277   2.015       .  S
O3267      C3280   1.280       .  A
O3267     Co3275   2.011       .  S
O3268      C3281   1.283       .  A
O3268     Co3276   2.011       .  S
O3269      C3282   1.273       .  A
O3269     Co3277   2.002       .  S
O3270      C3283   1.265       .  A
O3270     Co3278   1.986       .  S
O3271      C3283   1.291       .  A
O3271     Co3276   2.063       .  S
O3272      C3282   1.278       .  A
O3272     Co3275   2.012       .  S
O3273      C3280   1.272       .  A
O3273     Co3278   1.971       .  S
O3274      C3281   1.278       .  A
O3274     Co3277   2.010       .  S
Co3275     O3279   2.083       .  S
Co3276     O3279   2.083       .  S
Co3277     O3279   2.085       .  S
Co3278     O3279   2.098       .  S
O3284      C3292   1.287       .  A
O3284     Co3304   2.050       .  S
O3285      C3293   1.290       .  A
O3285     Co3305   1.934       .  S
O3286      C3294   1.302       .  A
O3286     Co3306   2.062       .  S
O3287      C3295   1.270       .  A
O3287     Co3307   1.999       .  S
O3288      C3294   1.283       .  A
O3288     Co3305   2.016       .  S
O3289      C3295   1.257       .  A
O3289     Co3304   1.996       .  S
O3290      C3293   1.287       .  A
O3290     Co3307   2.041       .  S
O3291      C3292   1.294       .  A
O3291     Co3306   2.053       .  S
O3296      C3309   1.295       .  A
O3296     Co3304   2.038       .  S
O3297      C3310   1.300       .  A
O3297     Co3305   2.092       .  S
O3298      C3311   1.266       .  A
O3298     Co3306   2.034       .  S
O3299      C3312   1.272       .  A
O3299     Co3307   2.010       .  S
O3300      C3312   1.280       .  A
O3300     Co3305   2.010       .  S
O3301      C3311   1.286       .  A
O3301     Co3304   2.022       .  S
O3302      C3309   1.275       .  A
O3302     Co3307   1.967       .  S
O3303      C3310   1.263       .  A
O3303     Co3306   1.992       .  S
Co3304     O3308   2.008       .  S
Co3305     O3308   1.890       .  S
Co3306     O3308   2.009       .  S
Co3307     O3308   2.065       .  S
