geometry optimzed in LAMMPS
_audit_creation_date              2020-11-30 
_audit_creation_method            'lammps2cif' 
_symmetry_space_group_name_H-M    'P1' 
_symmetry_Int_Tables_number       1 
_symmetry_cell_setting            triclinic 
loop_ 
_symmetry_equiv_pos_as_xyz 
  x,y,z 
_cell_length_a                    38.443361730267526 
_cell_length_b                    38.45077330831324 
_cell_length_c                    70.27931363606946 
_cell_angle_alpha                 90.17799941731595 
_cell_angle_beta                  90.12445114189458 
_cell_angle_gamma                 89.07522542307628 
loop_ 
_atom_site_label 
_atom_site_type_symbol 
_atom_site_fract_x 
_atom_site_fract_y 
_atom_site_fract_z 
_atom_site_charge 
In1        In  0.63322768  0.11682908  0.54632438     1.36870
C2          C  0.64587339  0.18351034  0.53901598     0.76410
O3          O  0.58476800  0.11825198  0.52819626    -0.62030
O4          O  0.58263358  0.09545701  0.55558560    -0.52940
C5          C  0.66044089  0.06436628  0.52605032     0.69080
O6          O  0.66316308  0.09561933  0.52087791    -0.47800
C7          C  0.64331443  0.11568468  0.58366946     0.73780
O8          O  0.66942259  0.16332463  0.54540661    -0.59660
O9          O  0.61818991  0.13132845  0.57574287    -0.49750
O10         O  0.61772459  0.16874159  0.53523495    -0.56090
C11         C  0.56643520  0.10390000  0.54067781     0.83960
O12         O  0.64653959  0.06072772  0.54205595    -0.57980
O13         O  0.66479986  0.10155059  0.57233737    -0.61280
In14       In  0.63573863  0.90196260  0.45127067     1.36870
C15         C  0.64434011  0.83327690  0.45567597     0.76410
O16         O  0.58668452  0.90898049  0.46861866    -0.62030
O17         O  0.58319012  0.90923844  0.43851683    -0.52940
C18         C  0.66263695  0.94824579  0.47543520     0.69080
O19         O  0.65244734  0.91883122  0.48063171    -0.47800
C20         C  0.65197150  0.91522096  0.41534188     0.73780
O21         O  0.67004443  0.85339187  0.45554937    -0.59660
O22         O  0.62885032  0.93188948  0.42439350    -0.49750
O23         O  0.61540646  0.84850361  0.45368531    -0.56090
C24         C  0.56735197  0.91126614  0.45413994     0.83960
O25         O  0.66221818  0.95254588  0.45771908    -0.57980
O26         O  0.66868385  0.89296641  0.42512894    -0.61280
In27       In  0.35092841  0.11313734  0.54797949     1.36870
C28         C  0.34550710  0.18232599  0.54544207     0.76410
O29         O  0.31767265  0.12227479  0.57412557    -0.62030
O30         O  0.36193361  0.08865850  0.57594389    -0.52940
C31         C  0.32122890  0.06543838  0.52573964     0.69080
O32         O  0.32951548  0.09493392  0.51965606    -0.47800
C33         C  0.41794068  0.10144910  0.54117236     0.73780
O34         O  0.31974279  0.16311771  0.54209065    -0.59660
O35         O  0.40315520  0.09329557  0.55642586    -0.49750
O36         O  0.37281053  0.16595608  0.55006531    -0.56090
C37         C  0.33703271  0.10333970  0.58453753     0.83960
O38         O  0.32469498  0.06200633  0.54340001    -0.57980
O39         O  0.39802880  0.11479743  0.52880766    -0.61280
In40       In  0.35000222  0.90255463  0.45149148     1.36870
C41         C  0.34376231  0.83375925  0.45538387     0.76410
O42         O  0.31732806  0.89309599  0.42532104    -0.62030
O43         O  0.35546316  0.93246506  0.42466343    -0.52940
C44         C  0.32154355  0.94962995  0.47509237     0.69080
O45         O  0.33248226  0.92035358  0.48069714    -0.47800
C46         C  0.41811410  0.91177803  0.45448434     0.73780
O47         O  0.31765390  0.85405277  0.45681545    -0.59660
O48         O  0.40197939  0.91129588  0.43890907    -0.49750
O49         O  0.37187894  0.84891212  0.45223160    -0.56090
C50         C  0.33316396  0.91544973  0.41555761     0.83960
O51         O  0.32213342  0.95328381  0.45734198    -0.57980
O52         O  0.39917450  0.90807000  0.46895646    -0.61280
In53       In  0.35256426  0.61440736  0.45247647     1.36870
C54         C  0.34527535  0.68327935  0.45655748     0.76410
O55         O  0.40196853  0.60921042  0.46992960    -0.62030
O56         O  0.40458063  0.60364692  0.43997218    -0.52940
C57         C  0.32437364  0.56738591  0.47557799     0.69080
O58         O  0.33454283  0.59649274  0.48144302    -0.47800
C59         C  0.33620571  0.60428601  0.41621967     0.73780
O60         O  0.31939156  0.66346302  0.45769219    -0.59660
O61         O  0.35768670  0.58529368  0.42511403    -0.49750
O62         O  0.37379729  0.66757154  0.45391896    -0.56090
C63         C  0.42088000  0.60424748  0.45549374     0.83960
O64         O  0.32551303  0.56393215  0.45780889    -0.57980
O65         O  0.32074987  0.62694471  0.42635161    -0.61280
In66       In  0.35494344  0.40164537  0.54702644     1.36870
C67         C  0.34824672  0.33282770  0.54421754     0.76410
O68         O  0.40260359  0.39727261  0.52826098    -0.62030
O69         O  0.40667024  0.42174207  0.55521317    -0.52940
C70         C  0.32480457  0.45046271  0.52518894     0.69080
O71         O  0.33387299  0.42106556  0.51880124    -0.47800
C72         C  0.34124384  0.40956351  0.58382768     0.73780
O73         O  0.32289874  0.35340434  0.54095339    -0.59660
O74         O  0.36536453  0.42505040  0.57544944    -0.49750
O75         O  0.37611182  0.34773292  0.54854161    -0.56090
C76         C  0.42192732  0.41199267  0.54026217     0.83960
O77         O  0.32763203  0.45324914  0.54292668    -0.57980
O78         O  0.32253308  0.39110924  0.57311265    -0.61280
In79       In  0.63815186  0.61458370  0.45148259     1.36870
C80         C  0.64567655  0.68307189  0.45646998     0.76410
O81         O  0.66978252  0.62348200  0.42492339    -0.62030
O82         O  0.62984970  0.58597018  0.42432695    -0.52940
C83         C  0.66731443  0.56653104  0.47418460     0.69080
O84         O  0.65875349  0.59642748  0.48006707    -0.47800
C85         C  0.57005843  0.60602881  0.45481132     0.73780
O86         O  0.67175712  0.66282962  0.45481132    -0.59660
O87         O  0.58528540  0.60996995  0.43915683    -0.49750
O88         O  0.61694516  0.66796313  0.45606863    -0.56090
C89         C  0.65258574  0.60203878  0.41513768     0.83960
O90         O  0.66408068  0.56265545  0.45652492    -0.57980
O91         O  0.58983170  0.60641744  0.46916878    -0.61280
In92       In  0.63809657  0.40199650  0.54601278     1.36870
C93         C  0.64671343  0.33336177  0.54156616     0.76410
O94         O  0.66940775  0.39173147  0.57285995    -0.62030
O95         O  0.62521628  0.42539932  0.57417297    -0.52940
C96         C  0.66756323  0.45016165  0.52403327     0.69080
O97         O  0.65893250  0.42084834  0.51779951    -0.47800
C98         C  0.57059995  0.41272171  0.53969858     0.73780
O99         O  0.67244023  0.35343416  0.54231281    -0.59660
O100        O  0.58577503  0.42131517  0.55483583    -0.49750
O101        O  0.61764467  0.34850018  0.54335265    -0.56090
C102        C  0.64971561  0.41066559  0.58308481     0.83960
O103        O  0.66441592  0.45333813  0.54171794    -0.57980
O104        O  0.59025482  0.39916687  0.52728364    -0.61280
In105      In  0.85051396  0.89817730  0.20212330     1.36870
C106        C  0.91954220  0.90467324  0.20422716     0.76410
O107        O  0.85539179  0.84998037  0.22039486    -0.62030
O108        O  0.82950568  0.84688252  0.19380890    -0.52940
C109        C  0.80247564  0.92750908  0.22483587     0.69080
O110        O  0.83172680  0.91727642  0.23089257    -0.47800
C111        C  0.84054345  0.91274856  0.16555617     0.73780
O112        O  0.89911504  0.92977505  0.20822861    -0.59660
O113        O  0.82713013  0.88725686  0.17380394    -0.49750
O114        O  0.90442013  0.87721249  0.19941471    -0.56090
C115        C  0.83995774  0.83110394  0.20844656     0.83960
O116        O  0.79947209  0.92618994  0.20705373    -0.57980
O117        O  0.85814332  0.93223903  0.17630815    -0.61280
In118      In  0.63840266  0.89900826  0.29765412     1.36870
C119        C  0.56908295  0.90606648  0.29574586     0.76410
O120        O  0.63794124  0.85079929  0.27899241    -0.62030
O121        O  0.65516320  0.84677105  0.30757352    -0.52940
C122        C  0.68578638  0.92723530  0.27475420     0.69080
O123        O  0.65655802  0.91758312  0.26878308    -0.47800
C124        C  0.65104281  0.91443447  0.33385424     0.73780
O125        O  0.58879468  0.93122132  0.29209252    -0.59660
O126        O  0.66503642  0.88915481  0.32521014    -0.49750
O127        O  0.58502816  0.87843038  0.30012789    -0.56090
C128        C  0.64891516  0.83128821  0.29218813     0.83960
O129        O  0.68914773  0.92558379  0.29250244    -0.57980
O130        O  0.63139737  0.93342009  0.32362064    -0.61280
In131      In  0.34915232  0.90104347  0.29763858     1.36870
C132        C  0.41831922  0.90724255  0.29634927     0.76410
O133        O  0.35341387  0.93508863  0.32387367    -0.62030
O134        O  0.32608858  0.88763693  0.32552045    -0.52940
C135        C  0.30204454  0.93147882  0.27482072     0.69080
O136        O  0.33086059  0.92004724  0.26879373    -0.47800
C137        C  0.33803248  0.83435887  0.29020186     0.73780
O138        O  0.39814596  0.93228089  0.29194322    -0.59660
O139        O  0.32569638  0.85015685  0.30442269    -0.49750
O140        O  0.40289592  0.88022672  0.30145911    -0.56090
C141        C  0.33670220  0.91416651  0.33414110     0.83960
O142        O  0.29909157  0.93062693  0.29259914    -0.57980
O143        O  0.35543167  0.85310625  0.27914580    -0.61280
In144      In  0.13955496  0.90080114  0.20213029     1.36870
C145        C  0.07021684  0.90640609  0.20376598     0.76410
O146        O  0.13203004  0.93388659  0.17584946    -0.62030
O147        O  0.16319045  0.88785740  0.17414919    -0.52940
C148        C  0.18579133  0.93161815  0.22481319     0.69080
O149        O  0.15730025  0.92043289  0.23087545    -0.47800
C150        C  0.15262745  0.83417680  0.20935238     0.73780
O151        O  0.08942065  0.93177369  0.20791934    -0.59660
O152        O  0.16417429  0.84973312  0.19503332    -0.49750
O153        O  0.08666169  0.87931848  0.19882129    -0.56090
C154        C  0.14991711  0.91342721  0.16549551     0.83960
O155        O  0.18874496  0.93043812  0.20703110    -0.57980
O156        O  0.13531116  0.85320647  0.22064826    -0.61280
In157      In  0.35045265  0.61911160  0.29764925     1.36870
C158        C  0.41928148  0.60999890  0.29437606     0.76410
O159        O  0.35668693  0.66671883  0.27936224    -0.62030
O160        O  0.32481492  0.67008638  0.30392954    -0.52940
C161        C  0.30266415  0.59026412  0.27511472     0.69080
O162        O  0.33233996  0.59839314  0.26925181    -0.47800
C163        C  0.34134804  0.60865500  0.33469261     0.73780
O164        O  0.39892984  0.58450134  0.29396755    -0.59660
O165        O  0.33527514  0.63717972  0.32653716    -0.49750
O166        O  0.40427525  0.63899473  0.29665804    -0.56090
C167        C  0.33804002  0.68570433  0.29004888     0.83960
O168        O  0.29881546  0.59373888  0.29275445    -0.57980
O169        O  0.35262470  0.58475227  0.32382254    -0.61280
In170      In  0.13649661  0.61934860  0.20340937     1.36870
C171        C  0.06918531  0.60836748  0.20976832     0.76410
O172        O  0.13614634  0.66754007  0.22160711    -0.62030
O173        O  0.15938172  0.66965073  0.19433395    -0.52940
C174        C  0.18662915  0.59112904  0.22481545     0.69080
O175        O  0.15513172  0.59107978  0.22990397    -0.47800
C176        C  0.13895275  0.60639435  0.16633931     0.73780
O177        O  0.08978810  0.58348237  0.20558738    -0.59660
O178        O  0.12125924  0.63086711  0.17356795    -0.49750
O179        O  0.08373984  0.63719748  0.21179959    -0.56090
C180        C  0.15097548  0.68578905  0.20928955     0.83960
O181        O  0.19151038  0.60289265  0.20839150    -0.57980
O182        O  0.15497836  0.58735872  0.17816035    -0.61280
In183      In  0.85032246  0.61477489  0.20261367     1.36870
C184        C  0.91911131  0.60713295  0.20676683     0.76410
O185        O  0.86134041  0.58347533  0.17591007    -0.62030
O186        O  0.82481978  0.62540899  0.17473502    -0.52940
C187        C  0.80283386  0.58496227  0.22484155     0.69080
O188        O  0.83196458  0.59436106  0.23099443    -0.47800
C189        C  0.83929091  0.68233953  0.20860301     0.73780
O190        O  0.89924827  0.58121430  0.20700043    -0.59660
O191        O  0.83215940  0.66716783  0.19323353    -0.49750
O192        O  0.90366269  0.63582720  0.20418030    -0.56090
C193        C  0.84094865  0.60180864  0.16578236     0.83960
O194        O  0.79955012  0.58760221  0.20713639    -0.57980
O195        O  0.85146427  0.66265635  0.22139357    -0.61280
In196      In  0.63823624  0.61471937  0.29701679     1.36870
C197        C  0.56948010  0.60769876  0.29306186     0.76410
O198        O  0.62989177  0.58288545  0.32360146    -0.62030
O199        O  0.66506776  0.62486937  0.32447797    -0.52940
C200        C  0.68650655  0.58492785  0.27462915     0.69080
O201        O  0.65660703  0.59313727  0.26864516    -0.47800
C202        C  0.64765495  0.68237675  0.29222901     0.73780
O203        O  0.58970267  0.58148716  0.29398777    -0.59660
O204        O  0.64879222  0.66748716  0.30813615    -0.49750
O205        O  0.58466665  0.63636649  0.29388435    -0.56090
C206        C  0.65019139  0.60116832  0.33352923     0.83960
O207        O  0.69025238  0.58876581  0.29224740    -0.57980
O208        O  0.64173719  0.66246177  0.27832161    -0.61280
In209      In  0.35111157  0.39692425  0.70284206     1.36870
C210        C  0.41914846  0.40845457  0.70712168     0.76410
O211        O  0.36034444  0.34841073  0.72011072    -0.62030
O212        O  0.32403152  0.34713550  0.69733150    -0.52940
C213        C  0.30227120  0.42591992  0.72515164     0.69080
O214        O  0.33200157  0.41735981  0.73121009    -0.47800
C215        C  0.34385696  0.40558554  0.66546422     0.73780
O216        O  0.39728974  0.43318167  0.70554787    -0.59660
O217        O  0.34000450  0.37692066  0.67369782    -0.49750
O218        O  0.40604924  0.37870856  0.70639442    -0.56090
C219        C  0.33954164  0.33056475  0.71035262     0.83960
O220        O  0.29888315  0.42289979  0.70745648    -0.57980
O221        O  0.35201821  0.43033797  0.67638366    -0.61280
In222      In  0.13672205  0.40168430  0.79799547     1.36870
C223        C  0.06851932  0.41091070  0.79177508     0.76410
O224        O  0.14833327  0.35169444  0.78193774    -0.62030
O225        O  0.13432416  0.34934235  0.81108330    -0.52940
C226        C  0.18576670  0.42697075  0.77522453     0.69080
O227        O  0.15514646  0.42185801  0.76948867    -0.47800
C228        C  0.14898921  0.42096533  0.83371462     0.73780
O229        O  0.08863602  0.43657401  0.79287201    -0.59660
O230        O  0.16521486  0.39651861  0.82550505    -0.49750
O231        O  0.08373983  0.38187283  0.79303968    -0.56090
C232        C  0.14216002  0.33279940  0.79616239     0.83960
O233        O  0.19012372  0.42172493  0.79270322    -0.57980
O234        O  0.12725471  0.43697938  0.82328688    -0.61280
In235      In  0.85015000  0.40322126  0.79665737     1.36870
C236        C  0.91810310  0.41243574  0.79109043     0.76410
O237        O  0.83878684  0.43639772  0.82295223    -0.62030
O238        O  0.85842847  0.38484978  0.82609309    -0.52940
C239        C  0.80066771  0.43149820  0.77459183     0.69080
O240        O  0.83174249  0.42780066  0.76914077    -0.47800
C241        C  0.83575621  0.33686115  0.79092172     0.73780
O242        O  0.89790707  0.43807252  0.79437291    -0.59660
O243        O  0.82499762  0.35391665  0.80511688    -0.49750
O244        O  0.90297220  0.38383690  0.78976862    -0.56090
C245        C  0.84772210  0.41217853  0.83419514     0.83960
O246        O  0.79591916  0.42380773  0.79176366    -0.57980
O247        O  0.85163341  0.35456052  0.77872688    -0.61280
In248      In  0.63618857  0.40304783  0.70155203     1.36870
C249        C  0.56887904  0.41476576  0.70911769     0.76410
O250        O  0.63040400  0.43461305  0.67465768    -0.62030
O251        O  0.66196622  0.38878492  0.67415744    -0.52940
C252        C  0.68523577  0.43143496  0.72352835     0.69080
O253        O  0.65430785  0.42804671  0.72903258    -0.47800
C254        C  0.63864367  0.33431209  0.70405500     0.73780
O255        O  0.58677444  0.43672711  0.70024360    -0.59660
O256        O  0.62335326  0.35057232  0.69086680    -0.49750
O257        O  0.58621725  0.38922705  0.71534444    -0.56090
C258        C  0.64882293  0.41369262  0.66486799     0.83960
O259        O  0.68999421  0.42333240  0.70639422    -0.57980
O260        O  0.65331237  0.35339367  0.71620209    -0.61280
In261      In  0.34920157  0.11493770  0.70318640     1.36870
C262        C  0.41804275  0.10569224  0.70619391     0.76410
O263        O  0.35534641  0.08253135  0.67643043    -0.62030
O264        O  0.32776767  0.13067377  0.67496989    -0.52940
C265        C  0.30282056  0.08533601  0.72619937     0.69080
O266        O  0.33152982  0.09643003  0.73203490    -0.47800
C267        C  0.33804909  0.18194786  0.71056447     0.73780
O268        O  0.39751179  0.08038554  0.70712984    -0.59660
O269        O  0.32407452  0.16624852  0.69685816    -0.49750
O270        O  0.40326583  0.13463073  0.70329536    -0.56090
C271        C  0.33904408  0.10430813  0.66616150     0.83960
O272        O  0.29942152  0.08623169  0.70843616    -0.57980
O273        O  0.35687960  0.16292919  0.72109946    -0.61280
In274      In  0.13593598  0.11432411  0.79718288     1.36870
C275        C  0.06953008  0.10277320  0.78831951     0.76410
O276        O  0.12529010  0.08377319  0.82384447    -0.62030
O277        O  0.16239921  0.12399487  0.82501013    -0.52940
C278        C  0.18654012  0.08516817  0.77609522     0.69080
O279        O  0.15583794  0.08888476  0.77004815    -0.47800
C280        C  0.13877839  0.18321294  0.79532704     0.73780
O281        O  0.08829578  0.08002185  0.79651478    -0.59660
O282        O  0.12475321  0.16712428  0.80878534    -0.49750
O283        O  0.08557511  0.12964030  0.78354500    -0.56090
C284        C  0.14577994  0.10137116  0.83398987     0.83960
O285        O  0.19027378  0.09332052  0.79328277    -0.57980
O286        O  0.15129927  0.16392118  0.78241772    -0.61280
In287      In  0.85221131  0.11989639  0.79562815     1.36870
C288        C  0.91994875  0.10769542  0.78920988     0.76410
O289        O  0.84290304  0.16783149  0.77768759    -0.62030
O290        O  0.84949533  0.17351732  0.80751296    -0.52940
C291        C  0.80334461  0.09125047  0.77362550     0.69080
O292        O  0.83348757  0.09736819  0.76770947    -0.47800
C293        C  0.84155556  0.10731285  0.83235473     0.73780
O294        O  0.89964136  0.08373831  0.79396222    -0.59660
O295        O  0.82528014  0.13055889  0.82321967    -0.49750
O296        O  0.90536333  0.13703703  0.78746675    -0.56090
C297        C  0.84358585  0.18812926  0.79180909     0.83960
O298        O  0.79939305  0.09671615  0.79111533    -0.57980
O299        O  0.86233671  0.08906237  0.82241152    -0.61280
In300      In  0.63474416  0.11630932  0.70238563     1.36870
C301        C  0.56807222  0.10307208  0.70963640     0.76410
O302        O  0.65278978  0.16557443  0.71694248    -0.62030
O303        O  0.61896150  0.16903765  0.69309073    -0.52940
C304        C  0.68616356  0.08980171  0.72376840     0.69080
O305        O  0.65532434  0.09278179  0.72970261    -0.47800
C306        C  0.64533657  0.10883934  0.66533883     0.73780
O307        O  0.58719021  0.08153648  0.70074264    -0.59660
O308        O  0.65031864  0.13654138  0.67436100    -0.49750
O309        O  0.58408136  0.12859386  0.71631972    -0.56090
C310        C  0.63622332  0.18498601  0.70549590     0.83960
O311        O  0.68983265  0.09754499  0.70651802    -0.57980
O312        O  0.63729036  0.08306211  0.67549055    -0.61280
In313      In  0.13449950  0.11526376  0.95279181     1.36870
C314        C  0.14266891  0.18395134  0.95388075     0.76410
O315        O  0.16781512  0.11733114  0.92627166    -0.62030
O316        O  0.11723693  0.09623237  0.92443701    -0.52940
C317        C  0.16595849  0.06870133  0.97533160     0.69080
O318        O  0.15335946  0.09695340  0.98153923    -0.47800
C319        C  0.06837489  0.10463506  0.96153725     0.73780
O320        O  0.16579696  0.16342682  0.96040802    -0.59660
O321        O  0.08508936  0.08650781  0.94962822    -0.49750
O322        O  0.11659391  0.16903281  0.94699190    -0.56090
C323        C  0.14459045  0.10423523  0.91579662     0.83960
O324        O  0.16576550  0.06612801  0.95749382    -0.57980
O325        O  0.08614565  0.12730556  0.96993962    -0.61280
In326      In  0.13903366  0.90378734  0.04680926     1.36870
C327        C  0.14969251  0.83532716  0.04285373     0.76410
O328        O  0.17099510  0.89544937  0.07353642    -0.62030
O329        O  0.12430529  0.92547748  0.07510929    -0.52940
C330        C  0.16788895  0.95194373  0.02462269     0.69080
O331        O  0.15833073  0.92297328  0.01833455    -0.47800
C332        C  0.07145971  0.91358249  0.04039062     0.73780
O333        O  0.17472391  0.85625811  0.04324393    -0.59660
O334        O  0.08701353  0.92551148  0.05470738    -0.49750
O335        O  0.12018547  0.84951697  0.04478091    -0.56090
C336        C  0.14999486  0.91264552  0.08387504     0.83960
O337        O  0.16580844  0.95476726  0.04237155    -0.57980
O338        O  0.09082166  0.89736013  0.02879343    -0.61280
In339      In  0.85303108  0.11583444  0.95133823     1.36870
C340        C  0.84143949  0.18404360  0.95581971     0.76410
O341        O  0.89937220  0.12162971  0.97088255    -0.62030
O342        O  0.90608484  0.09614069  0.94428550    -0.52940
C343        C  0.82562231  0.06544869  0.97256644     0.69080
O344        O  0.82975226  0.09583314  0.97877340    -0.47800
C345        C  0.84228770  0.10819687  0.91410825     0.73780
O346        O  0.81669186  0.16283664  0.95487204    -0.59660
O347        O  0.86959234  0.09829272  0.92250892    -0.49750
O348        O  0.87120435  0.17024447  0.95422931    -0.56090
C349        C  0.91996597  0.10652522  0.95946931     0.83960
O350        O  0.83216592  0.06204498  0.95517619    -0.57980
O351        O  0.81965369  0.12210781  0.92485327    -0.61280
In352      In  0.85518479  0.90284987  0.04700110     1.36870
C353        C  0.84479437  0.83455511  0.04392173     0.76410
O354        O  0.90441285  0.89273862  0.03036755    -0.62030
O355        O  0.90584719  0.92730768  0.05391160    -0.52940
C356        C  0.82706818  0.94955070  0.02303496     0.69080
O357        O  0.83932249  0.92069670  0.01761723    -0.47800
C358        C  0.84316393  0.91312955  0.08393636     0.73780
O359        O  0.81993223  0.85635976  0.04266724    -0.59660
O360        O  0.86980560  0.92373694  0.07552610    -0.49750
O361        O  0.87396679  0.84783839  0.04707972    -0.56090
C362        C  0.92250682  0.91221658  0.04077667     0.83960
O363        O  0.82605510  0.95302983  0.04080341    -0.57980
O364        O  0.82177327  0.89770409  0.07329236    -0.61280
In365      In  0.13722843  0.62028454  0.04770667     1.36870
C366        C  0.15391877  0.68561116  0.03965627     0.76410
O367        O  0.08828053  0.61077399  0.03082933    -0.62030
O368        O  0.08516907  0.63858575  0.05698002    -0.52940
C369        C  0.15689012  0.56398023  0.02796387     0.69080
O370        O  0.16929516  0.59343504  0.02429972    -0.47800
C371        C  0.14313887  0.60758868  0.08478386     0.73780
O372        O  0.17222870  0.66727455  0.05084621    -0.59660
O373        O  0.11497719  0.60869339  0.07574617    -0.49750
O374        O  0.13063204  0.66912312  0.03108411    -0.56090
C375        C  0.06910133  0.62540868  0.04314718     0.83960
O376        O  0.13792426  0.56353177  0.04246692    -0.57980
O377        O  0.16990707  0.61193821  0.07463283    -0.61280
In378      In  0.13339096  0.40288959  0.94948952     1.36870
C379        C  0.14414015  0.33425574  0.95211977     0.76410
O380        O  0.08710023  0.39715109  0.96871504    -0.62030
O381        O  0.07954191  0.40056164  0.93868370    -0.52940
C382        C  0.15158256  0.45161612  0.97436038     0.69080
O383        O  0.17412072  0.43079212  0.96750161    -0.47800
C384        C  0.15020369  0.42446823  0.91485006     0.73780
O385        O  0.15980144  0.35492630  0.96311839    -0.59660
O386        O  0.12369739  0.43535236  0.92362528    -0.49750
O387        O  0.12537177  0.34905071  0.93987689    -0.56090
C388        C  0.06600342  0.39738214  0.95490165     0.83960
O389        O  0.12135605  0.44789397  0.96797878    -0.57980
O390        O  0.17030758  0.40533935  0.92462918    -0.61280
In391      In  0.85158102  0.61747039  0.04764904     1.36870
C392        C  0.83924909  0.68476319  0.04067143     0.76410
O393        O  0.81856969  0.62128846  0.07414926    -0.62030
O394        O  0.86625310  0.59265939  0.07515463    -0.52940
C395        C  0.82536052  0.56658526  0.02610389     0.69080
O396        O  0.82355951  0.59809008  0.02121744    -0.47800
C397        C  0.92018022  0.61875713  0.04475784     0.73780
O398        O  0.81746890  0.66660558  0.04952482    -0.59660
O399        O  0.90365376  0.63019741  0.05897028    -0.49750
O400        O  0.86447995  0.66762684  0.03393791    -0.56090
C401        C  0.84011711  0.60401230  0.08413395     0.83960
O402        O  0.83803318  0.56184589  0.04237801    -0.57980
O403        O  0.90147607  0.60572796  0.03187223    -0.61280
In404      In  0.84879833  0.40017647  0.95284715     1.36870
C405        C  0.83472508  0.33371209  0.95992752     0.76410
O406        O  0.81563630  0.40329481  0.92608613    -0.62030
O407        O  0.86874473  0.41795318  0.92496743    -0.52940
C408        C  0.82289033  0.45074710  0.97510672     0.69080
O409        O  0.82490493  0.41945709  0.98033176    -0.47800
C410        C  0.91741283  0.39763274  0.95639971     0.73780
O411        O  0.81446540  0.35246030  0.94998199    -0.59660
O412        O  0.90083593  0.38114278  0.94392638    -0.49750
O413        O  0.85899693  0.35007233  0.96766695    -0.56090
C414        C  0.84100117  0.41270381  0.91598309     0.83960
O415        O  0.83115991  0.45548415  0.95801418    -0.57980
O416        O  0.89873205  0.41620953  0.96729234    -0.61280
C417        C  0.81153107  0.54241269  0.99387212    -0.14510
C418        C  0.81646684  0.53719358  0.01346336     0.07640
C419        C  0.81801589  0.50299585  0.02047603    -0.14510
C420        C  0.81713885  0.47459938  0.00802318    -0.14510
C421        C  0.81507183  0.47986644  0.98829492     0.07640
C422        C  0.81103727  0.51397019  0.98137605    -0.14510
H423        H  0.81038725  0.56846177  0.98808071     0.11620
H424        H  0.82184218  0.49818375  0.03552556     0.11620
H425        H  0.82048395  0.44864461  0.01375225     0.11620
H426        H  0.80944158  0.51875766  0.96621603     0.11620
C427        C  0.01054953  0.41109999  0.97199919    -0.14510
C428        C  0.02839527  0.39434267  0.95708572     0.07640
C429        C  0.00978683  0.37685020  0.94297822    -0.14510
C430        C  0.97369177  0.37706628  0.94329232    -0.14510
C431        C  0.95551840  0.39536113  0.95753893     0.07640
C432        C  0.97411451  0.41190289  0.97212882    -0.14510
H433        H  0.02469336  0.42485603  0.98295864     0.11620
H434        H  0.02322816  0.36357492  0.93145859     0.11620
H435        H  0.96001090  0.36382253  0.93197497     0.11620
H436        H  0.96055721  0.42596146  0.98332302     0.11620
C437        C  0.01294611  0.61021957  0.02722744    -0.14510
C438        C  0.03094256  0.62580439  0.04234004     0.07640
C439        C  0.01222978  0.63978405  0.05774663    -0.14510
C440        C  0.97625127  0.63749438  0.05833928    -0.14510
C441        C  0.95816707  0.62130922  0.04350097     0.07640
C442        C  0.97664945  0.60806944  0.02778077    -0.14510
H443        H  0.02692617  0.59917011  0.01522983     0.11620
H444        H  0.02546033  0.65183093  0.06962428     0.11620
H445        H  0.96261846  0.64813159  0.07056597     0.11620
H446        H  0.96313645  0.59568224  0.01611440     0.11620
C447        C  0.13498527  0.50732925  0.01711226    -0.14510
C448        C  0.16043914  0.53294088  0.01561518     0.07640
C449        C  0.18578528  0.52977017  0.00126082    -0.14510
C450        C  0.18488763  0.50173035  0.98831978    -0.14510
C451        C  0.15805061  0.47743012  0.98938542     0.07640
C452        C  0.13354781  0.48026469  0.00402886    -0.14510
H453        H  0.11484894  0.50916866  0.02784840     0.11620
H454        H  0.20551117  0.54933380  0.99975207     0.11620
H455        H  0.20376045  0.50016108  0.97692401     0.11620
H456        H  0.11251765  0.46192047  0.00502794     0.11620
C457        C  0.87053814  0.77663059  0.03651248    -0.14510
C458        C  0.84115731  0.79652892  0.04167764     0.07640
C459        C  0.80968414  0.77955589  0.04522737    -0.14510
C460        C  0.80825204  0.74300715  0.04443839    -0.14510
C461        C  0.83802882  0.72321827  0.03956216     0.07640
C462        C  0.86890565  0.74056301  0.03526481    -0.14510
H463        H  0.89507585  0.78899487  0.03359078     0.11620
H464        H  0.78668773  0.79439407  0.04926583     0.11620
H465        H  0.78420911  0.73025093  0.04794412     0.11620
H466        H  0.89241112  0.72612997  0.03164977     0.11620
C467        C  0.80637451  0.23998376  0.95324501    -0.14510
C468        C  0.83697678  0.22198857  0.95861746     0.07640
C469        C  0.86493819  0.24085190  0.96592671    -0.14510
C470        C  0.86292391  0.27694816  0.96735880    -0.14510
C471        C  0.83315726  0.29532792  0.96113403     0.07640
C472        C  0.80464120  0.27653830  0.95425680    -0.14510
H473        H  0.78449167  0.22595823  0.94752825     0.11620
H474        H  0.88876219  0.22767449  0.97027302     0.11620
H475        H  0.88548808  0.29059442  0.97256257     0.11620
H476        H  0.78150950  0.29008955  0.94924003     0.11620
C477        C  0.81123495  0.04035336  0.00437968    -0.14510
C478        C  0.81745497  0.03554759  0.98486164     0.07640
C479        C  0.82131267  0.00151781  0.97771469    -0.14510
C480        C  0.82180080  0.97305538  0.99004559    -0.14510
C481        C  0.81813869  0.97806852  0.00974082     0.07640
C482        C  0.81141381  0.01181928  0.01670770    -0.14510
H483        H  0.80826868  0.06627465  0.01026708     0.11620
H484        H  0.82630664  0.99701719  0.96273323     0.11620
H485        H  0.82712138  0.94737250  0.98428366     0.11620
H486        H  0.80861896  0.01645726  0.03184169     0.11620
C487        C  0.01546361  0.89620373  0.02511048    -0.14510
C488        C  0.03347039  0.91689403  0.03822749     0.07640
C489        C  0.01460947  0.93846477  0.05075706    -0.14510
C490        C  0.97840032  0.93805836  0.05089345    -0.14510
C491        C  0.96033570  0.91597377  0.03854753     0.07640
C492        C  0.97906415  0.89569331  0.02529530    -0.14510
H493        H  0.02949367  0.87927447  0.01535038     0.11620
H494        H  0.02788244  0.95477671  0.06095255     0.11620
H495        H  0.96459828  0.95409176  0.06118070     0.11620
H496        H  0.96567461  0.87846210  0.01562179     0.11620
C497        C  0.18395624  0.77892627  0.04556119    -0.14510
C498        C  0.15352799  0.79728169  0.04026239     0.07640
C499        C  0.12512208  0.77872199  0.03323102    -0.14510
C500        C  0.12657593  0.74258463  0.03195333    -0.14510
C501        C  0.15617249  0.72388625  0.03811386     0.07640
C502        C  0.18508047  0.74234120  0.04477117    -0.14510
H503        H  0.20616234  0.79271484  0.05107406     0.11620
H504        H  0.10140099  0.79218455  0.02897297     0.11620
H505        H  0.10369699  0.72916264  0.02699131     0.11620
H506        H  0.20807021  0.72851213  0.04976042     0.11620
C507        C  0.11887179  0.24135006  0.94423277    -0.14510
C508        C  0.14477528  0.22236108  0.95392516     0.07640
C509        C  0.17120106  0.24050547  0.96345756    -0.14510
C510        C  0.17139914  0.27717468  0.96324166    -0.14510
C511        C  0.14545901  0.29584249  0.95325766     0.07640
C512        C  0.11929022  0.27741375  0.94384195    -0.14510
H513        H  0.09807735  0.22830610  0.93679699     0.11620
H514        H  0.19140274  0.22643439  0.97111325     0.11620
H515        H  0.19181589  0.29081883  0.97064597     0.11620
H516        H  0.09869964  0.29094447  0.93618355     0.11620
C517        C  0.01163529  0.12403840  0.97589363    -0.14510
C518        C  0.03060251  0.10108189  0.96409563     0.07640
C519        C  0.01268568  0.07722637  0.95272179    -0.14510
C520        C  0.97651352  0.07798924  0.95203556    -0.14510
C521        C  0.95752649  0.10230893  0.96288400     0.07640
C522        C  0.97520359  0.12450982  0.97536956    -0.14510
H523        H  0.02490930  0.14271136  0.98477255     0.11620
H524        H  0.02662960  0.05916639  0.94354259     0.11620
H525        H  0.96340915  0.06040415  0.94243207     0.11620
H526        H  0.96099685  0.14350681  0.98384786     0.11620
C527        C  0.17759699  0.01525199  0.01976673    -0.14510
C528        C  0.17700095  0.98136472  0.01221692     0.07640
C529        C  0.17920943  0.97680614  0.99243090    -0.14510
C530        C  0.17909211  0.00567200  0.98036267    -0.14510
C531        C  0.17621566  0.03952238  0.98788085     0.07640
C532        C  0.17693521  0.04410137  0.00769700    -0.14510
H533        H  0.17583487  0.01953942  0.03497989     0.11620
H534        H  0.17876813  0.95099572  0.98624375     0.11620
H535        H  0.17845169  0.00137052  0.96512471     0.11620
H536        H  0.17471071  0.06987807  0.01386104     0.11620
C537        C  0.81403186  0.12459696  0.86329350    -0.14510
C538        C  0.83796550  0.10356017  0.85317460     0.07640
C539        C  0.86078066  0.08162315  0.86331606    -0.14510
C540        C  0.86107986  0.08221063  0.88319314    -0.14510
C541        C  0.83833106  0.10446132  0.89330767     0.07640
C542        C  0.81407698  0.12489420  0.88321583    -0.14510
H543        H  0.79612889  0.14178427  0.85581305     0.11620
H544        H  0.87946685  0.06517996  0.85590338     0.11620
H545        H  0.87989027  0.06599564  0.89065886     0.11620
H546        H  0.79631948  0.14227249  0.89068225     0.11620
C547        C  0.74034908  0.07938072  0.76827257    -0.14510
C548        C  0.77417570  0.08205941  0.76091821     0.07640
C549        C  0.77884503  0.08151884  0.74111040    -0.14510
C550        C  0.75005717  0.08121941  0.72890826    -0.14510
C551        C  0.71609891  0.08143131  0.73629381     0.07640
C552        C  0.71155069  0.07905723  0.75606550    -0.14510
H553        H  0.73596873  0.07979731  0.78349549     0.11620
H554        H  0.80458946  0.08362739  0.73504650     0.11620
H555        H  0.75435450  0.08304081  0.71371727     0.11620
H556        H  0.68570396  0.07925303  0.76215488     0.11620
C557        C  0.17484140  0.11497163  0.86496522    -0.14510
C558        C  0.14862064  0.09767673  0.85485213     0.07640
C559        C  0.12301552  0.08001750  0.86500292    -0.14510
C560        C  0.12257361  0.08115646  0.88487853    -0.14510
C561        C  0.14796045  0.09962700  0.89499398     0.07640
C562        C  0.17464359  0.11575518  0.88488303    -0.14510
H563        H  0.19487800  0.12884462  0.85746089     0.11620
H564        H  0.10239828  0.06669038  0.85757685     0.11620
H565        H  0.10171181  0.06841210  0.89232300     0.11620
H566        H  0.19445968  0.13019857  0.89232237     0.11620
C567        C  0.97604995  0.07398052  0.79398713    -0.14510
C568        C  0.95789675  0.10287677  0.78647414     0.07640
C569        C  0.97674993  0.12923544  0.77761300    -0.14510
C570        C  0.01300987  0.12779366  0.77715873    -0.14510
C571        C  0.03140830  0.10010679  0.78571418     0.07640
C572        C  0.01260492  0.07267530  0.79368787    -0.14510
H573        H  0.96210778  0.05332985  0.80092105     0.11620
H574        H  0.96347299  0.15168447  0.77157251     0.11620
H575        H  0.02668727  0.14930316  0.77086750     0.11620
H576        H  0.02612009  0.05109365  0.80045129     0.11620
C577        C  0.47487147  0.07167381  0.70506667    -0.14510
C578        C  0.45624587  0.10283881  0.70851759     0.07640
C579        C  0.47459549  0.13266662  0.71368869    -0.14510
C580        C  0.51073908  0.13175920  0.71500792    -0.14510
C581        C  0.52969115  0.10118038  0.71079172     0.07640
C582        C  0.51147030  0.07096793  0.70593828    -0.14510
H583        H  0.46126696  0.04833674  0.70103980     0.11620
H584        H  0.46095595  0.15698944  0.71654464     0.11620
H585        H  0.52395093  0.15558121  0.71859720     0.11620
H586        H  0.52548194  0.04714326  0.70249324     0.11620
C587        C  0.24049637  0.07112766  0.73187788    -0.14510
C588        C  0.27423040  0.07581385  0.73911848     0.07640
C589        C  0.27905457  0.07730221  0.75890481    -0.14510
C590        C  0.25041121  0.07717498  0.77112434    -0.14510
C591        C  0.21641481  0.07578567  0.76377501     0.07640
C592        C  0.21179358  0.07122097  0.74410563    -0.14510
H593        H  0.23600544  0.06996420  0.71666784     0.11620
H594        H  0.30473557  0.08090413  0.76487957     0.11620
H595        H  0.25478580  0.08067027  0.78623814     0.11620
H596        H  0.18591331  0.07010902  0.73805417     0.11620
C597        C  0.65507091  0.27787942  0.71983775    -0.14510
C598        C  0.63862316  0.29614898  0.70495159     0.07640
C599        C  0.62142463  0.27766473  0.69062731    -0.14510
C600        C  0.62060911  0.24161971  0.69107987    -0.14510
C601        C  0.63705845  0.22316175  0.70583953     0.07640
C602        C  0.65435920  0.24146523  0.72025689    -0.14510
H603        H  0.66842727  0.29168679  0.73106509     0.11620
H604        H  0.60851678  0.29106927  0.67898940     0.11620
H605        H  0.60721477  0.22817916  0.67972473     0.11620
H606        H  0.66725397  0.22768799  0.73176383     0.11620
C607        C  0.82469633  0.43901984  0.86464722    -0.14510
C608        C  0.84576005  0.41423664  0.85516050     0.07320
C609        C  0.86414360  0.38926607  0.86589464    -0.14510
C610        C  0.86184686  0.38906381  0.88563030    -0.14510
C611        C  0.84058878  0.41330670  0.89511947     0.07640
C612        C  0.82188563  0.43837200  0.88460967    -0.14510
H613        H  0.81010146  0.45837574  0.85665219     0.11620
H614        H  0.88054133  0.36983892  0.85901797     0.11620
H615        H  0.87669502  0.36977130  0.89356830     0.11620
H616        H  0.80573354  0.45758604  0.89181069     0.11620
C617        C  0.82378330  0.28042401  0.80619105    -0.14510
C618        C  0.83276886  0.29883521  0.78976677     0.07640
C619        C  0.84291882  0.28038044  0.77334812    -0.14510
C620        C  0.84513127  0.24399234  0.77362480    -0.14510
C621        C  0.83798622  0.22589469  0.79044903     0.07640
C622        C  0.82671947  0.24433780  0.80658360    -0.14510
H623        H  0.81610471  0.29399384  0.81907833     0.11620
H624        H  0.85016421  0.29409116  0.76054799     0.11620
H625        H  0.85385132  0.23015065  0.76102087     0.11620
H626        H  0.82076437  0.23084473  0.81966242     0.11620
C627        C  0.77685984  0.44142830  0.74186773    -0.14510
C628        C  0.77153856  0.44053355  0.76161969     0.07640
C629        C  0.73732718  0.44262733  0.76861963    -0.14510
C630        C  0.70893925  0.44266657  0.75611588    -0.14510
C631        C  0.71427143  0.44050672  0.73638769     0.07640
C632        C  0.74847468  0.44136574  0.72936565    -0.14510
H633        H  0.80290070  0.43975053  0.73606348     0.11620
H634        H  0.73243497  0.44198394  0.78378757     0.11620
H635        H  0.68290691  0.44197828  0.76193226     0.11620
H636        H  0.75338468  0.43971361  0.71421262     0.11620
C637        C  0.18031593  0.41104594  0.86439357    -0.14510
C638        C  0.15370158  0.42823902  0.85418723     0.07640
C639        C  0.12927092  0.44875490  0.86412574    -0.14510
C640        C  0.12983112  0.44981181  0.88402229    -0.14510
C641        C  0.15494907  0.43052373  0.89428049     0.07640
C642        C  0.18099701  0.41225892  0.88426748    -0.14510
H643        H  0.19957112  0.39514085  0.85706257     0.11620
H644        H  0.10845975  0.46219377  0.85660659     0.11620
H645        H  0.10933769  0.46401106  0.89138072     0.11620
H646        H  0.20055189  0.39705108  0.89178928     0.11620
C647        C  0.15419154  0.27590786  0.77954556    -0.14510
C648        C  0.14244430  0.29452722  0.79558664     0.07640
C649        C  0.12961580  0.27630614  0.81126885    -0.14510
C650        C  0.12839641  0.24020632  0.81098610    -0.14510
C651        C  0.14022756  0.22142889  0.79507453     0.07640
C652        C  0.15325256  0.23948071  0.77932840    -0.14510
H653        H  0.16405659  0.28946584  0.76724612     0.11620
H654        H  0.12013832  0.28998951  0.82376070     0.11620
H655        H  0.11822751  0.22697317  0.82331853     0.11620
H656        H  0.16248100  0.22549243  0.76688013     0.11620
C657        C  0.01156825  0.38211853  0.78930621    -0.14510
C658        C  0.03013658  0.41322552  0.78993938     0.07640
C659        C  0.01149281  0.44504593  0.79001785    -0.14510
C660        C  0.97480225  0.44544380  0.78996298    -0.14510
C661        C  0.95651472  0.41402245  0.78972331     0.07640
C662        C  0.97544221  0.38251334  0.78917139    -0.14510
H663        H  0.02497722  0.35712814  0.78930485     0.11620
H664        H  0.02518622  0.46940581  0.79057275     0.11620
H665        H  0.96083274  0.47008968  0.79042706     0.11620
H666        H  0.96230876  0.35779775  0.78909190     0.11620
C667        C  0.31199464  0.27496152  0.70116820    -0.14510
C668        C  0.33510314  0.29292733  0.71298328     0.07640
C669        C  0.35624640  0.27412810  0.72577234    -0.14510
C670        C  0.35580427  0.23775160  0.72585662    -0.14510
C671        C  0.33427517  0.21982134  0.71312196     0.07640
C672        C  0.31161858  0.23874517  0.70121909    -0.14510
H673        H  0.29529581  0.28883434  0.69123868     0.11620
H674        H  0.37427022  0.28743074  0.73503308     0.11620
H675        H  0.37353303  0.22368757  0.73516040     0.11620
H676        H  0.29464787  0.22553846  0.69133060     0.11620
C677        C  0.47703550  0.38537455  0.71705289    -0.14510
C678        C  0.45707006  0.41294386  0.70953876     0.07640
C679        C  0.47400167  0.44310298  0.70347772    -0.14510
C680        C  0.51054235  0.44471326  0.70399238    -0.14510
C681        C  0.53046762  0.41645485  0.71093200     0.07640
C682        C  0.51317336  0.38721714  0.71789494    -0.14510
H683        H  0.46469650  0.36191546  0.72195643     0.11620
H684        H  0.45914589  0.46469096  0.69759760     0.11620
H685        H  0.52319977  0.46748326  0.69844349     0.11620
H686        H  0.52767125  0.36493893  0.72327070     0.11620
C687        C  0.27773191  0.43578297  0.75761926    -0.14510
C688        C  0.27286764  0.43502942  0.73783138     0.07640
C689        C  0.23883929  0.43725555  0.73049122    -0.14510
C690        C  0.21014275  0.43722038  0.74272100    -0.14510
C691        C  0.21505046  0.43519509  0.76248564     0.07640
C692        C  0.24908696  0.43597788  0.76983015    -0.14510
H693        H  0.30362785  0.43404599  0.76366783     0.11620
H694        H  0.23432381  0.43661933  0.71527445     0.11620
H695        H  0.18422951  0.43663631  0.73668123     0.11620
H696        H  0.25367838  0.43447439  0.78502289     0.11620
C697        C  0.81178403  0.61719257  0.13509736    -0.14510
C698        C  0.83728356  0.59773841  0.14497922     0.07640
C699        C  0.86121197  0.57735927  0.13462568    -0.14510
C700        C  0.86095930  0.57808551  0.11473268    -0.14510
C701        C  0.83660499  0.59898768  0.10486153     0.07640
C702        C  0.81136191  0.61770810  0.11520766    -0.14510
H703        H  0.79294508  0.63308291  0.14274936     0.11620
H704        H  0.88115152  0.56221099  0.14188166     0.11620
H705        H  0.88070479  0.56333100  0.10709192     0.11620
H706        H  0.79235582  0.63404057  0.10796931     0.11620
C707        C  0.77855521  0.57398234  0.25718296    -0.14510
C708        C  0.77373304  0.57543781  0.23740149     0.07640
C709        C  0.73978527  0.57371151  0.23000097    -0.14510
C710        C  0.71105469  0.57388146  0.24219172    -0.14510
C711        C  0.71584173  0.57541871  0.26197999     0.07640
C712        C  0.74985217  0.57378789  0.26936510    -0.14510
H713        H  0.80440047  0.57529057  0.26326818     0.11620
H714        H  0.73529242  0.57487218  0.21479121     0.11620
H715        H  0.68516052  0.57514286  0.23611859     0.11620
H716        H  0.75433749  0.57497252  0.28457596     0.11620
C717        C  0.17372330  0.59740431  0.11620567    -0.14510
C718        C  0.14311384  0.60320833  0.10564607     0.07640
C719        C  0.11123631  0.60671999  0.11529571    -0.14510
C720        C  0.11004842  0.60632221  0.13505211    -0.14510
C721        C  0.14052835  0.60146350  0.14564544     0.07640
C722        C  0.17235572  0.59611780  0.13617531    -0.14510
H723        H  0.19856175  0.59459363  0.10908944     0.11620
H724        H  0.08715820  0.61120680  0.10759019     0.11620
H725        H  0.08531406  0.61059905  0.14211395     0.11620
H726        H  0.19622946  0.59276391  0.14421492     0.11620
C727        C  0.01115209  0.63614189  0.21449388    -0.14510
C728        C  0.03084424  0.60566053  0.21114248     0.07640
C729        C  0.01331638  0.57445923  0.20753495    -0.14510
C730        C  0.97670276  0.57420864  0.20672962    -0.14510
C731        C  0.95734536  0.60524255  0.20926196     0.07640
C732        C  0.97501388  0.63596921  0.21346318    -0.14510
H733        H  0.02372421  0.66063544  0.21731982     0.11620
H734        H  0.02785425  0.55062793  0.20482267     0.11620
H735        H  0.96365393  0.55016215  0.20347885     0.11620
H736        H  0.96086192  0.66023010  0.21566142     0.11620
C737        C  0.47609172  0.63782623  0.28899072    -0.14510
C738        C  0.45756674  0.60734427  0.29242323     0.07640
C739        C  0.47611791  0.57578230  0.29470014    -0.14510
C740        C  0.51274922  0.57521282  0.29433989    -0.14510
C741        C  0.53109332  0.60618020  0.29161489     0.07640
C742        C  0.51226744  0.63724445  0.28855995    -0.14510
H743        H  0.46258374  0.66247080  0.28694803     0.11620
H744        H  0.46240802  0.55190318  0.29733383     0.11620
H745        H  0.52665796  0.55091386  0.29673289     0.11620
H746        H  0.52555176  0.66149335  0.28624681     0.11620
C747        C  0.23980807  0.57796795  0.26942839    -0.14510
C748        C  0.27373983  0.58113634  0.26225059     0.07640
C749        C  0.27870947  0.58141300  0.24248356    -0.14510
C750        C  0.25013113  0.58164145  0.23017862    -0.14510
C751        C  0.21606084  0.58157492  0.23740398     0.07640
C752        C  0.21115804  0.57816842  0.25708987    -0.14510
H753        H  0.23522162  0.57778132  0.28463146     0.11620
H754        H  0.30452648  0.58384422  0.23655657     0.11620
H755        H  0.25468431  0.58416278  0.21504047     0.11620
H756        H  0.18519905  0.57820310  0.26303470     0.11620
C757        C  0.17710836  0.89561991  0.13469893    -0.14510
C758        C  0.15378825  0.91742062  0.14474433     0.07640
C759        C  0.13185786  0.94018703  0.13458237    -0.14510
C760        C  0.13175511  0.93962280  0.11469464    -0.14510
C761        C  0.15383110  0.91655015  0.10465695     0.07640
C762        C  0.17726094  0.89531784  0.11481296    -0.14510
H763        H  0.19437973  0.87785243  0.14221723     0.11620
H764        H  0.11362168  0.95716541  0.14197511     0.11620
H765        H  0.11353616  0.95641474  0.10717363     0.11620
H766        H  0.19452026  0.87734058  0.10742172     0.11620
C767        C  0.13931450  0.77856375  0.22598785    -0.14510
C768        C  0.15720764  0.79638675  0.21171992     0.07640
C769        C  0.17649859  0.77738008  0.19818427    -0.14510
C770        C  0.17597271  0.74118393  0.19807642    -0.14510
C771        C  0.15630458  0.72334755  0.21156638     0.07640
C772        C  0.13893751  0.74219754  0.22593673    -0.14510
H773        H  0.12423290  0.79268543  0.23656368     0.11620
H774        H  0.19066631  0.79050379  0.18708045     0.11620
H775        H  0.18976427  0.72721248  0.18693621     0.11620
H776        H  0.12357016  0.72893938  0.23649500     0.11620
C777        C  0.31245398  0.77855698  0.30023970    -0.14510
C778        C  0.33381087  0.79665334  0.28763386     0.07640
C779        C  0.35350232  0.77795531  0.27412527    -0.14510
C780        C  0.35346447  0.74153327  0.27407961    -0.14510
C781        C  0.33369204  0.72352025  0.28752576     0.07640
C782        C  0.31237843  0.74236791  0.30017753    -0.14510
H783        H  0.29687406  0.79234225  0.31073357     0.11620
H784        H  0.37020027  0.79138325  0.26427086     0.11620
H785        H  0.37014798  0.72752786  0.26419591     0.11620
H786        H  0.29677685  0.72913938  0.31064364     0.11620
C787        C  0.23878009  0.94307928  0.26948664    -0.14510
C788        C  0.27276644  0.94121326  0.26215041     0.07640
C789        C  0.27751516  0.94260381  0.24237711    -0.14510
C790        C  0.24875989  0.94296703  0.23014098    -0.14510
C791        C  0.21481802  0.94135266  0.23747468     0.07640
C792        C  0.21003718  0.94285818  0.25725210    -0.14510
H793        H  0.23433758  0.94192501  0.28468808     0.11620
H794        H  0.30339605  0.94115891  0.23635131     0.11620
H795        H  0.25322773  0.94171103  0.21493779     0.11620
H796        H  0.18419442  0.94159122  0.26328005     0.11620
C797        C  0.51167331  0.93839542  0.29100200    -0.14510
C798        C  0.53051160  0.90770567  0.29528266     0.07640
C799        C  0.51210064  0.87748365  0.29955912    -0.14510
C800        C  0.47590760  0.87778800  0.29977683    -0.14510
C801        C  0.45684804  0.90830376  0.29568906     0.07640
C802        C  0.47501590  0.93868185  0.29117927    -0.14510
H803        H  0.52521575  0.96206394  0.28764546     0.11620
H804        H  0.52570337  0.85337155  0.30287712     0.11620
H805        H  0.46281630  0.85388869  0.30322022     0.11620
H806        H  0.46095513  0.96255508  0.28793580     0.11620
C807        C  0.66604788  0.77452014  0.30608805    -0.14510
C808        C  0.65270406  0.79325323  0.29053586     0.07640
C809        C  0.64054549  0.77510876  0.27452146    -0.14510
C810        C  0.64027275  0.73864429  0.27452879    -0.14510
C811        C  0.65193947  0.72017008  0.29059964     0.07640
C812        C  0.66556479  0.73841113  0.30614127    -0.14510
H813        H  0.67577741  0.78780582  0.31857673     0.11620
H814        H  0.63007969  0.78905774  0.26237193     0.11620
H815        H  0.62960090  0.72501937  0.26239337     0.11620
H816        H  0.67500075  0.72475688  0.31863734     0.11620
C817        C  0.86043103  0.93891607  0.13500792    -0.14510
C818        C  0.83729324  0.91759451  0.14479716     0.07640
C819        C  0.81349616  0.89767335  0.13435354    -0.14510
C820        C  0.81402267  0.89768127  0.11446330    -0.14510
C821        C  0.83865976  0.91727342  0.10468568     0.07640
C822        C  0.86125162  0.93858930  0.11511149    -0.14510
H823        H  0.87909801  0.95440165  0.14271065     0.11620
H824        H  0.79531724  0.88103788  0.14157445     0.11620
H825        H  0.79634275  0.88105715  0.10677961     0.11620
H826        H  0.88042157  0.95408517  0.10789492     0.11620
C827        C  0.97575819  0.93707344  0.20919822    -0.14510
C828        C  0.95804355  0.90631979  0.20477476     0.07640
C829        C  0.97753873  0.87617915  0.20039885    -0.14510
C830        C  0.01372847  0.87662910  0.20023210    -0.14510
C831        C  0.03166276  0.90723098  0.20444944     0.07640
C832        C  0.01238688  0.93752117  0.20904575    -0.14510
H833        H  0.96136000  0.96068467  0.21262028     0.11620
H834        H  0.96479452  0.85203447  0.19696551     0.11620
H835        H  0.02770002  0.85280625  0.19670010     0.11620
H836        H  0.02556491  0.96146075  0.21237765     0.11620
C837        C  0.81680911  0.77513979  0.19680954    -0.14510
C838        C  0.83570790  0.79334887  0.21060964     0.07640
C839        C  0.85274586  0.77477924  0.22518136    -0.14510
C840        C  0.85244096  0.73834775  0.22525874    -0.14510
C841        C  0.83521375  0.72024983  0.21072443     0.07640
C842        C  0.81662658  0.73897642  0.19684445    -0.14510
H843        H  0.80323637  0.78881183  0.18549198     0.11620
H844        H  0.86750264  0.78830285  0.23597437     0.11620
H845        H  0.86703129  0.72437812  0.23608532     0.11620
H846        H  0.80294197  0.72562970  0.18556224     0.11620
C847        C  0.73892856  0.93789251  0.23009398    -0.14510
C848        C  0.77295093  0.93648966  0.23749186     0.07640
C849        C  0.77766193  0.93782658  0.25728673    -0.14510
C850        C  0.74890765  0.93792103  0.26945906    -0.14510
C851        C  0.71494910  0.93617506  0.26206172     0.07640
C852        C  0.71017237  0.93748576  0.24227033    -0.14510
H853        H  0.73450058  0.93673383  0.21487811     0.11620
H854        H  0.80354912  0.93669333  0.26337518     0.11620
H855        H  0.75340083  0.93684954  0.28467096     0.11620
H856        H  0.68433384  0.93611630  0.23618377     0.11620
C857        C  0.63315283  0.43942911  0.61370723    -0.14510
C858        C  0.65354440  0.41454539  0.60390122     0.07640
C859        C  0.67507390  0.39176778  0.61432405    -0.14510
C860        C  0.67475153  0.39263118  0.63423307    -0.14510
C861        C  0.65312218  0.41647815  0.64404112     0.07640
C862        C  0.63304527  0.44048195  0.63358937    -0.14510
H863        H  0.61638119  0.45740382  0.60600606     0.11620
H864        H  0.69095785  0.37231900  0.60712582     0.11620
H865        H  0.69050002  0.37378589  0.64195190     0.11620
H866        H  0.61610218  0.45904760  0.64076250     0.11620
C867        C  0.63522741  0.57422903  0.38447028    -0.14510
C868        C  0.65657654  0.59756375  0.39437640     0.07640
C869        C  0.67860616  0.61918541  0.38403981    -0.14510
C870        C  0.67779881  0.61892700  0.36415585    -0.14510
C871        C  0.65496809  0.59703516  0.35425911     0.07640
C872        C  0.63443530  0.57395611  0.36457741    -0.14510
H873        H  0.61794531  0.55724450  0.39209755     0.11620
H874        H  0.69524142  0.63743433  0.39129916     0.11620
H875        H  0.69399848  0.63696864  0.35654319     0.11620
H876        H  0.61662219  0.55685761  0.35731780     0.11620
C877        C  0.67919641  0.50334323  0.47961223    -0.14510
C878        C  0.67663932  0.53734008  0.48696430     0.07640
C879        C  0.67723783  0.54218802  0.50676898    -0.14510
C880        C  0.67749127  0.51348382  0.51896715    -0.14510
C881        C  0.67680484  0.47948110  0.51156031     0.07640
C882        C  0.67910003  0.47465966  0.49179783    -0.14510
H883        H  0.67874477  0.49880473  0.46439322     0.11620
H884        H  0.67523507  0.56806605  0.51282275     0.11620
H885        H  0.67563894  0.51798293  0.53415928     0.11620
H886        H  0.67858648  0.44877826  0.48570584     0.11620
C887        C  0.35319236  0.43808010  0.61506279    -0.14510
C888        C  0.33714719  0.41145403  0.60465527     0.07640
C889        C  0.32085655  0.38453926  0.61445953    -0.14510
C890        C  0.32232540  0.38321711  0.63431543    -0.14510
C891        C  0.33953120  0.40913086  0.64470023     0.07640
C892        C  0.35406018  0.43712273  0.63495093    -0.14510
H893        H  0.36597841  0.45910610  0.60778985     0.11620
H894        H  0.30856860  0.36359717  0.60675880     0.11620
H895        H  0.31069163  0.36145761  0.64153815     0.11620
H896        H  0.36739801  0.45740621  0.64263998     0.11620
C897        C  0.47808954  0.39807742  0.52358671    -0.14510
C898        C  0.45960896  0.41626989  0.53779586     0.07640
C899        C  0.47787480  0.43634820  0.55104845    -0.14510
C900        C  0.51403658  0.43657029  0.55089951    -0.14510
C901        C  0.53270100  0.41676005  0.53747987     0.07640
C902        C  0.51453253  0.39833891  0.52342224    -0.14510
H903        H  0.46449922  0.38238526  0.51322629     0.11620
H904        H  0.46424302  0.45085238  0.56204764     0.11620
H905        H  0.52743204  0.45121324  0.56179195     0.11620
H906        H  0.52845065  0.38280738  0.51295495     0.11620
C907        C  0.34866932  0.57494612  0.38510265    -0.14510
C908        C  0.33213674  0.60197244  0.39537190     0.07640
C909        C  0.31593338  0.62928751  0.38538919    -0.14510
C910        C  0.31802813  0.63066614  0.36557788    -0.14510
C911        C  0.33602583  0.60456831  0.35535215     0.07640
C912        C  0.35041441  0.57612341  0.36521949    -0.14510
H913        H  0.36147663  0.55361565  0.39248318     0.11620
H914        H  0.30323814  0.65053927  0.39293192     0.11620
H915        H  0.30643977  0.65277926  0.35829307     0.11620
H916        H  0.36432279  0.55566027  0.35766227     0.11620
C917        C  0.47736171  0.59586035  0.43914681    -0.14510
C918        C  0.45904158  0.60102866  0.45618496     0.07640
C919        C  0.47759451  0.60549180  0.47324356    -0.14510
C920        C  0.51403414  0.60595949  0.47307212    -0.14510
C921        C  0.53212540  0.60218799  0.45582529     0.07640
C922        C  0.51347973  0.59652884  0.43896308    -0.14510
H923        H  0.46374097  0.59225547  0.42579400     0.11620
H924        H  0.46396512  0.60959921  0.48655245     0.11620
H925        H  0.52795617  0.61039285  0.48624901     0.11620
H926        H  0.52681341  0.59330526  0.42549247     0.11620
C927        C  0.31185134  0.50466128  0.48101473    -0.14510
C928        C  0.31545841  0.53844276  0.48841271     0.07640
C929        C  0.31614242  0.54308363  0.50823081    -0.14510
C930        C  0.31595276  0.51427995  0.52035182    -0.14510
C931        C  0.31552141  0.48032365  0.51286129     0.07640
C932        C  0.31211492  0.47583455  0.49312367    -0.14510
H933        H  0.31133223  0.50028017  0.46578432     0.11620
H934        H  0.31898899  0.56877977  0.51432487     0.11620
H935        H  0.31874422  0.51853598  0.53552193     0.11620
H936        H  0.31178917  0.44999704  0.48697084     0.11620
C937        C  0.34804344  0.94439148  0.38493484    -0.14510
C938        C  0.32852843  0.91964632  0.39483397     0.07640
C939        C  0.30846925  0.89602655  0.38448749    -0.14510
C940        C  0.30978419  0.89558103  0.36462746    -0.14510
C941        C  0.33105779  0.91884052  0.35476234     0.07640
C942        C  0.34923628  0.94404334  0.36504470    -0.14510
H943        H  0.36378240  0.96292157  0.39257962     0.11620
H944        H  0.29327742  0.87666247  0.39174025     0.11620
H945        H  0.29529710  0.87599660  0.35702360     0.11620
H946        H  0.36576620  0.96226762  0.35778793     0.11620
C947        C  0.31149183  0.77713731  0.45899342    -0.14510
C948        C  0.34270690  0.79535175  0.45687164     0.07640
C949        C  0.37411393  0.77639836  0.45551203    -0.14510
C950        C  0.37449659  0.74024962  0.45587203    -0.14510
C951        C  0.34347675  0.72176982  0.45757661     0.07640
C952        C  0.31187317  0.74049290  0.45932526    -0.14510
H953        H  0.28691716  0.79112865  0.46007031     0.11620
H954        H  0.39864891  0.78952463  0.45391016     0.11620
H955        H  0.39930006  0.72673479  0.45450153     0.11620
H956        H  0.28757164  0.72687003  0.46062317     0.11620
C957        C  0.31181862  0.12352628  0.61550028    -0.14510
C958        C  0.33280018  0.09988606  0.60530587     0.07640
C959        C  0.35306240  0.07524775  0.61534209    -0.14510
C960        C  0.35375254  0.07542370  0.63522631    -0.14510
C961        C  0.33446385  0.10047606  0.64540445     0.07640
C962        C  0.31278076  0.12393199  0.63539292    -0.14510
H963        H  0.29607758  0.14282664  0.60811605     0.11620
H964        H  0.36944347  0.05665982  0.60780620     0.11620
H965        H  0.37060761  0.05705074  0.64258727     0.11620
H966        H  0.29747885  0.14341901  0.64292463     0.11620
C967        C  0.31444085  0.24023081  0.54033466    -0.14510
C968        C  0.34493880  0.22081955  0.54428393     0.07640
C969        C  0.37603714  0.23857216  0.54751705    -0.14510
C970        C  0.37674904  0.27472268  0.54714024    -0.14510
C971        C  0.34638232  0.29436899  0.54353456     0.07640
C972        C  0.31515334  0.27683950  0.53997682    -0.14510
H973        H  0.29012644  0.22718719  0.53775441     0.11620
H974        H  0.40004088  0.22449256  0.55051002     0.11620
H975        H  0.40125541  0.28732093  0.54989212     0.11620
H976        H  0.29135723  0.29137103  0.53716385     0.11620
C977        C  0.31314375  0.97343749  0.50794410    -0.14510
C978        C  0.31238063  0.97850400  0.48817951     0.07640
C979        C  0.30848448  0.01250795  0.48108714    -0.14510
C980        C  0.30857360  0.04108376  0.49345720    -0.14510
C981        C  0.31209296  0.03609988  0.51314309     0.07640
C982        C  0.31277500  0.00199238  0.52032361    -0.14510
H983        H  0.31619334  0.94754597  0.51379574     0.11620
H984        H  0.30790878  0.01719550  0.46589720     0.11620
H985        H  0.30805570  0.06705489  0.48754518     0.11620
H986        H  0.31562670  0.99735982  0.53545008     0.11620
C987        C  0.67914333  0.89731678  0.38449709    -0.14510
C988        C  0.65680547  0.91973978  0.39465438     0.07640
C989        C  0.63572081  0.94363586  0.38456737    -0.14510
C990        C  0.63530981  0.94351504  0.36465829    -0.14510
C991        C  0.65594047  0.91945791  0.35452732     0.07640
C992        C  0.67869527  0.89716220  0.36461615    -0.14510
H993        H  0.69561374  0.87864059  0.39188866     0.11620
H994        H  0.61822451  0.96124472  0.39205282     0.11620
H995        H  0.61754697  0.96094332  0.35724591     0.11620
H996        H  0.69499653  0.87839943  0.35715835     0.11620
C997        C  0.67827751  0.77625606  0.45589375    -0.14510
C998        C  0.64668704  0.79497661  0.45764292     0.07640
C999        C  0.61586180  0.77658304  0.46033600    -0.14510
C1000       C  0.61619662  0.74041718  0.46060455    -0.14510
C1001       C  0.64735352  0.72143198  0.45812209     0.07640
C1002       C  0.67860194  0.73962324  0.45609082    -0.14510
H1003       H  0.70241242  0.78984048  0.45379856     0.11620
H1004       H  0.59113188  0.79017695  0.46187600     0.11620
H1005       H  0.59168802  0.72728414  0.46230444     0.11620
H1006       H  0.70297737  0.72560426  0.45413484     0.11620
C1007       C  0.51050790  0.92076865  0.43819731    -0.14510
C1008       C  0.52925716  0.91480199  0.45503523     0.07640
C1009       C  0.51118628  0.91022186  0.47217746    -0.14510
C1010       C  0.47475293  0.91033339  0.47227427    -0.14510
C1011       C  0.45614577  0.91509837  0.45523538     0.07640
C1012       C  0.47435362  0.92095310  0.43829908    -0.14510
H1013       H  0.52380939  0.92454532  0.42480550     0.11620
H1014       H  0.52517549  0.90549925  0.48533458     0.11620
H1015       H  0.46121047  0.90569640  0.48550153     0.11620
H1016       H  0.46065036  0.92484629  0.42497127     0.11620
C1017       C  0.62733295  0.13810180  0.61553925    -0.14510
C1018       C  0.64603028  0.11377929  0.60455495     0.07640
C1019       C  0.66477093  0.08686916  0.61371843    -0.14510
C1020       C  0.66418346  0.08414665  0.63365940    -0.14510
C1021       C  0.64561876  0.10888366  0.64447254     0.07640
C1022       C  0.62750335  0.13591393  0.63526671    -0.14510
H1023       H  0.61254369  0.15895803  0.60885719     0.11620
H1024       H  0.67908080  0.06761775  0.60547477     0.11620
H1025       H  0.67853817  0.06329509  0.64059936     0.11620
H1026       H  0.61302428  0.15523381  0.64340931     0.11620
C1027       C  0.67934758  0.23930277  0.54273065    -0.14510
C1028       C  0.64909092  0.22173040  0.53721798     0.07640
C1029       C  0.61965355  0.24136844  0.53171719    -0.14510
C1030       C  0.61965815  0.27753419  0.53266377    -0.14510
C1031       C  0.64923971  0.29521628  0.53888252     0.07640
C1032       C  0.67950349  0.27590384  0.54341359    -0.14510
H1033       H  0.70235313  0.22481002  0.54711079     0.11620
H1034       H  0.59592105  0.22874154  0.52738215     0.11620
H1035       H  0.59606935  0.29170739  0.52889557     0.11620
H1036       H  0.70265141  0.28897851  0.54824535     0.11620
C1037       C  0.51115958  0.08027567  0.55274068    -0.14510
C1038       C  0.52878959  0.09879730  0.53868600     0.07640
C1039       C  0.50972325  0.11489656  0.52398298    -0.14510
C1040       C  0.47332478  0.11420102  0.52405165    -0.14510
C1041       C  0.45576892  0.09739711  0.53882419     0.07640
C1042       C  0.47501397  0.07957474  0.55280516    -0.14510
H1043       H  0.52526283  0.06744800  0.56415790     0.11620
H1044       H  0.52283131  0.12936911  0.51299488     0.11620
H1045       H  0.45896402  0.12819992  0.51314681     0.11620
H1046       H  0.46209339  0.06624918  0.56429214     0.11620
C1047       C  0.66454206  0.00029209  0.52086089    -0.14510
C1048       C  0.66954475  0.03410180  0.51392599     0.07640
C1049       C  0.67796323  0.03850871  0.49466835    -0.14510
C1050       C  0.67853350  0.00990615  0.48227730    -0.14510
C1051       C  0.67075389  0.97649057  0.48896991     0.07640
C1052       C  0.66516390  0.97176201  0.50850991    -0.14510
H1053       H  0.65802107  0.99608815  0.53565990     0.11620
H1054       H  0.68183034  0.06426165  0.48894405     0.11620
H1055       H  0.68286745  0.01430005  0.46725815     0.11620
H1056       H  0.65901026  0.94635802  0.51406642     0.11620
loop_ 
_geom_bond_atom_site_label_1 
_geom_bond_atom_site_label_2 
_geom_bond_distance 
_geom_bond_site_symmetry_2 
_ccdc_geom_bond_type 
In1           O3   2.255       .  S
In1           O4   2.223       .  S
In1          O12   2.228       .  S
In1           O6   2.271       .  S
In1           O8   2.284       .  S
In1           O9   2.215       .  S
In1          O10   2.217       .  S
In1          O13   2.266       .  S
C2            O8   1.265       .  A
C2           O10   1.258       .  A
C2         C1028   1.483       .  S
O3           C11   1.261       .  A
O4           C11   1.258       .  A
C5           O12   1.256       .  A
C5            O6   1.263       .  A
C5         C1048   1.478       .  S
C7            O9   1.259       .  A
C7           O13   1.264       .  A
C7         C1018   1.473       .  S
C11        C1038   1.470       .  S
In14         O16   2.260       .  S
In14         O17   2.222       .  S
In14         O25   2.254       .  S
In14         O19   2.256       .  S
In14         O21   2.289       .  S
In14         O22   2.228       .  S
In14         O23   2.218       .  S
In14         O26   2.256       .  S
C15          O21   1.265       .  A
C15          O23   1.256       .  A
C15         C998   1.481       .  S
O16          C24   1.261       .  A
O17          C24   1.258       .  A
C18          O25   1.257       .  A
C18          O19   1.258       .  A
C18        C1051   1.478       .  S
C20          O22   1.260       .  A
C20          O26   1.266       .  A
C20         C988   1.477       .  S
C24        C1008   1.470       .  S
In27         O29   2.264       .  S
In27         O30   2.219       .  S
In27         O38   2.246       .  S
In27         O32   2.266       .  S
In27         O34   2.287       .  S
In27         O35   2.217       .  S
In27         O36   2.215       .  S
In27         O39   2.261       .  S
C28          O34   1.266       .  A
C28          O36   1.258       .  A
C28         C968   1.482       .  S
O29          C37   1.266       .  A
O30          C37   1.258       .  A
C31          O38   1.255       .  A
C31          O32   1.259       .  A
C31         C981   1.478       .  S
C33          O35   1.257       .  A
C33          O39   1.262       .  A
C33        C1041   1.470       .  S
C37         C958   1.476       .  S
In40         O42   2.257       .  S
In40         O43   2.224       .  S
In40         O51   2.247       .  S
In40         O45   2.262       .  S
In40         O47   2.290       .  S
In40         O48   2.218       .  S
In40         O49   2.216       .  S
In40         O52   2.264       .  S
C41          O47   1.265       .  A
C41          O49   1.257       .  A
C41         C948   1.482       .  S
O42          C50   1.266       .  A
O43          C50   1.259       .  A
C44          O51   1.256       .  A
C44          O45   1.259       .  A
C44         C978   1.478       .  S
C46          O48   1.257       .  A
C46          O52   1.262       .  A
C46        C1011   1.470       .  S
C50         C938   1.476       .  S
In53         O55   2.265       .  S
In53         O56   2.218       .  S
In53         O64   2.249       .  S
In53         O58   2.265       .  S
In53         O60   2.289       .  S
In53         O61   2.230       .  S
In53         O62   2.215       .  S
In53         O65   2.253       .  S
C54          O60   1.266       .  A
C54          O62   1.257       .  A
C54         C951   1.482       .  S
O55          C63   1.262       .  A
O56          C63   1.257       .  A
C57          O64   1.256       .  A
C57          O58   1.259       .  A
C57         C928   1.480       .  S
C59          O61   1.260       .  A
C59          O65   1.265       .  A
C59         C908   1.476       .  S
C63         C918   1.471       .  S
In66         O68   2.264       .  S
In66         O69   2.219       .  S
In66         O77   2.249       .  S
In66         O71   2.265       .  S
In66         O73   2.282       .  S
In66         O74   2.227       .  S
In66         O75   2.218       .  S
In66         O78   2.260       .  S
C67          O73   1.266       .  A
C67          O75   1.259       .  A
C67         C971   1.482       .  S
O68          C76   1.262       .  A
O69          C76   1.258       .  A
C70          O77   1.255       .  A
C70          O71   1.259       .  A
C70         C931   1.479       .  S
C72          O74   1.258       .  A
C72          O78   1.264       .  A
C72         C888   1.474       .  S
C76         C898   1.471       .  S
In79         O81   2.260       .  S
In79         O82   2.225       .  S
In79         O90   2.246       .  S
In79         O84   2.266       .  S
In79         O86   2.289       .  S
In79         O87   2.217       .  S
In79         O88   2.219       .  S
In79         O91   2.264       .  S
C80          O86   1.265       .  A
C80          O88   1.256       .  A
C80        C1001   1.482       .  S
O81          C89   1.266       .  A
O82          C89   1.259       .  A
C83          O90   1.256       .  A
C83          O84   1.259       .  A
C83         C878   1.479       .  S
C85          O87   1.258       .  A
C85          O91   1.262       .  A
C85         C921   1.470       .  S
C89         C868   1.477       .  S
In92         O94   2.268       .  S
In92         O95   2.225       .  S
In92        O103   2.254       .  S
In92         O97   2.266       .  S
In92         O99   2.284       .  S
In92        O100   2.222       .  S
In92        O101   2.221       .  S
In92        O104   2.263       .  S
C93          O99   1.265       .  A
C93         O101   1.258       .  A
C93        C1031   1.480       .  S
O94         C102   1.265       .  A
O95         C102   1.258       .  A
C96         O103   1.254       .  A
C96          O97   1.257       .  A
C96         C881   1.479       .  S
C98         O100   1.258       .  A
C98         O104   1.261       .  A
C98         C901   1.471       .  S
C102        C858   1.477       .  S
In105       O107   2.263       .  S
In105       O108   2.219       .  S
In105       O116   2.250       .  S
In105       O110   2.265       .  S
In105       O112   2.284       .  S
In105       O113   2.224       .  S
In105       O114   2.220       .  S
In105       O117   2.263       .  S
C106        O112   1.266       .  A
C106        O114   1.259       .  A
C106        C828   1.483       .  S
O107        C115   1.262       .  A
O108        C115   1.258       .  A
C109        O116   1.256       .  A
C109        O110   1.259       .  A
C109        C848   1.479       .  S
C111        O113   1.258       .  A
C111        O117   1.265       .  A
C111        C818   1.476       .  S
C115        C838   1.472       .  S
In118       O120   2.268       .  S
In118       O121   2.214       .  S
In118       O129   2.247       .  S
In118       O123   2.268       .  S
In118       O125   2.291       .  S
In118       O126   2.219       .  S
In118       O127   2.218       .  S
In118       O130   2.265       .  S
C119        O125   1.266       .  A
C119        O127   1.257       .  A
C119        C798   1.483       .  S
O120        C128   1.262       .  A
O121        C128   1.257       .  A
C122        O129   1.255       .  A
C122        O123   1.260       .  A
C122        C851   1.480       .  S
C124        O126   1.259       .  A
C124        O130   1.266       .  A
C124        C991   1.477       .  S
C128        C808   1.472       .  S
In131       O133   2.265       .  S
In131       O134   2.218       .  S
In131       O142   2.248       .  S
In131       O136   2.264       .  S
In131       O138   2.287       .  S
In131       O139   2.221       .  S
In131       O140   2.220       .  S
In131       O143   2.262       .  S
C132        O138   1.265       .  A
C132        O140   1.258       .  A
C132        C801   1.483       .  S
O133        C141   1.266       .  A
O134        C141   1.258       .  A
C135        O142   1.255       .  A
C135        O136   1.259       .  A
C135        C788   1.478       .  S
C137        O139   1.258       .  A
C137        O143   1.262       .  A
C137        C778   1.472       .  S
C141        C941   1.476       .  S
In144       O146   2.261       .  S
In144       O147   2.220       .  S
In144       O155   2.249       .  S
In144       O149   2.262       .  S
In144       O151   2.286       .  S
In144       O152   2.222       .  S
In144       O153   2.219       .  S
In144       O156   2.257       .  S
C145        O151   1.266       .  A
C145        O153   1.258       .  A
C145        C831   1.483       .  S
O146        C154   1.266       .  A
O147        C154   1.258       .  A
C148        O155   1.256       .  A
C148        O149   1.259       .  A
C148        C791   1.478       .  S
C150        O152   1.258       .  A
C150        O156   1.262       .  A
C150        C768   1.471       .  S
C154        C758   1.475       .  S
In157       O159   2.256       .  S
In157       O160   2.223       .  S
In157       O168   2.251       .  S
In157       O162   2.259       .  S
In157       O164   2.287       .  S
In157       O165   2.220       .  S
In157       O166   2.219       .  S
In157       O169   2.269       .  S
C158        O164   1.264       .  A
C158        O166   1.257       .  A
C158        C738   1.480       .  S
O159        C167   1.262       .  A
O160        C167   1.260       .  A
C161        O168   1.255       .  A
C161        O162   1.258       .  A
C161        C748   1.478       .  S
C163        O165   1.257       .  A
C163        O169   1.265       .  A
C163        C911   1.476       .  S
C167        C781   1.472       .  S
In170       O172   2.248       .  S
In170       O173   2.233       .  S
In170       O181   2.225       .  S
In170       O175   2.268       .  S
In170       O177   2.287       .  S
In170       O178   2.220       .  S
In170       O179   2.211       .  S
In170       O182   2.265       .  S
C171        O177   1.267       .  A
C171        O179   1.257       .  A
C171        C728   1.483       .  S
O172        C180   1.259       .  A
O173        C180   1.259       .  A
C174        O181   1.257       .  A
C174        O175   1.263       .  A
C174        C751   1.477       .  S
C176        O178   1.259       .  A
C176        O182   1.262       .  A
C176        C721   1.467       .  S
C180        C771   1.470       .  S
In183       O185   2.263       .  S
In183       O186   2.225       .  S
In183       O194   2.252       .  S
In183       O188   2.264       .  S
In183       O190   2.285       .  S
In183       O191   2.223       .  S
In183       O192   2.219       .  S
In183       O195   2.263       .  S
C184        O190   1.265       .  A
C184        O192   1.258       .  A
C184        C731   1.481       .  S
O185        C193   1.265       .  A
O186        C193   1.258       .  A
C187        O194   1.255       .  A
C187        O188   1.258       .  A
C187        C708   1.478       .  S
C189        O191   1.258       .  A
C189        O195   1.261       .  A
C189        C841   1.471       .  S
C193        C698   1.477       .  S
In196       O198   2.263       .  S
In196       O199   2.223       .  S
In196       O207   2.246       .  S
In196       O201   2.267       .  S
In196       O203   2.288       .  S
In196       O204   2.215       .  S
In196       O205   2.220       .  S
In196       O208   2.267       .  S
C197        O203   1.265       .  A
C197        O205   1.257       .  A
C197        C741   1.481       .  S
O198        C206   1.266       .  A
O199        C206   1.259       .  A
C200        O207   1.255       .  A
C200        O201   1.259       .  A
C200        C711   1.478       .  S
C202        O204   1.258       .  A
C202        O208   1.262       .  A
C202        C811   1.470       .  S
C206        C871   1.477       .  S
In209       O211   2.252       .  S
In209       O212   2.226       .  S
In209       O220   2.252       .  S
In209       O214   2.261       .  S
In209       O216   2.282       .  S
In209       O217   2.228       .  S
In209       O218   2.228       .  S
In209       O221   2.264       .  S
C210        O216   1.264       .  A
C210        O218   1.258       .  A
C210        C678   1.480       .  S
O211        C219   1.262       .  A
O212        C219   1.260       .  A
C213        O220   1.255       .  A
C213        O214   1.258       .  A
C213        C688   1.478       .  S
C215        O217   1.257       .  A
C215        O221   1.264       .  A
C215        C891   1.475       .  S
C219        C668   1.472       .  S
In222       O224   2.265       .  S
In222       O225   2.219       .  S
In222       O233   2.237       .  S
In222       O227   2.270       .  S
In222       O229   2.295       .  S
In222       O230   2.228       .  S
In222       O231   2.213       .  S
In222       O234   2.260       .  S
C223        O229   1.266       .  A
C223        O231   1.255       .  A
C223        C658   1.482       .  S
O224        C232   1.263       .  A
O225        C232   1.259       .  A
C226        O233   1.256       .  A
C226        O227   1.262       .  A
C226        C691   1.479       .  S
C228        O230   1.259       .  A
C228        O234   1.264       .  A
C228        C638   1.476       .  S
C232        C648   1.472       .  S
In235       O237   2.281       .  S
In235       O238   2.209       .  S
In235       O246   2.244       .  S
In235       O240   2.262       .  S
In235       O242   2.297       .  S
In235       O243   2.225       .  S
In235       O244   2.206       .  S
In235       O247   2.253       .  S
C236        O242   1.266       .  A
C236        O244   1.255       .  A
C236        C661   1.482       .  S
O237        C245   1.266       .  A
O238        C245   1.257       .  A
C239        O246   1.258       .  A
C239        O240   1.261       .  A
C239        C628   1.480       .  S
C241        O243   1.259       .  A
C241        O247   1.261       .  A
C241        C618   1.470       .  S
C245        C608   1.477       .  S
In248       O250   2.258       .  S
In248       O251   2.230       .  S
In248       O259   2.247       .  S
In248       O253   2.268       .  S
In248       O255   2.284       .  S
In248       O256   2.214       .  S
In248       O257   2.226       .  S
In248       O260   2.260       .  S
C249        O255   1.265       .  A
C249        O257   1.257       .  A
C249        C681   1.483       .  S
O250        C258   1.266       .  A
O251        C258   1.259       .  A
C252        O259   1.256       .  A
C252        O253   1.260       .  A
C252        C631   1.480       .  S
C254        O256   1.259       .  A
C254        O260   1.262       .  A
C254        C598   1.469       .  S
C258        C861   1.478       .  S
In261       O263   2.263       .  S
In261       O264   2.228       .  S
In261       O272   2.256       .  S
In261       O266   2.260       .  S
In261       O268   2.283       .  S
In261       O269   2.228       .  S
In261       O270   2.223       .  S
In261       O273   2.254       .  S
C262        O268   1.265       .  A
C262        O270   1.258       .  A
C262        C578   1.480       .  S
O263        C271   1.265       .  A
O264        C271   1.258       .  A
C265        O272   1.255       .  A
C265        O266   1.257       .  A
C265        C588   1.478       .  S
C267        O269   1.259       .  A
C267        O273   1.261       .  A
C267        C671   1.472       .  S
C271        C961   1.476       .  S
In274       O276   2.256       .  S
In274       O277   2.235       .  S
In274       O285   2.244       .  S
In274       O279   2.269       .  S
In274       O281   2.274       .  S
In274       O282   2.221       .  S
In274       O283   2.230       .  S
In274       O286   2.261       .  S
C275        O281   1.264       .  A
C275        O283   1.259       .  A
C275        C571   1.482       .  S
O276        C284   1.264       .  A
O277        C284   1.259       .  A
C278        O285   1.256       .  A
C278        O279   1.260       .  A
C278        C591   1.479       .  S
C280        O282   1.259       .  A
C280        O286   1.261       .  A
C280        C651   1.472       .  S
C284        C558   1.477       .  S
In287       O289   2.260       .  S
In287       O290   2.223       .  S
In287       O298   2.252       .  S
In287       O292   2.263       .  S
In287       O294   2.278       .  S
In287       O295   2.234       .  S
In287       O296   2.234       .  S
In287       O299   2.257       .  S
C288        O294   1.263       .  A
C288        O296   1.258       .  A
C288        C568   1.480       .  S
O289        C297   1.261       .  A
O290        C297   1.259       .  A
C291        O298   1.256       .  A
C291        O292   1.258       .  A
C291        C548   1.479       .  S
C293        O295   1.260       .  A
C293        O299   1.265       .  A
C293        C538   1.478       .  S
C297        C621   1.468       .  S
In300       O302   2.268       .  S
In300       O303   2.207       .  S
In300       O311   2.245       .  S
In300       O305   2.261       .  S
In300       O307   2.285       .  S
In300       O308   2.207       .  S
In300       O309   2.225       .  S
In300       O312   2.280       .  S
C301        O307   1.263       .  A
C301        O309   1.256       .  A
C301        C581   1.481       .  S
O302        C310   1.263       .  A
O303        C310   1.258       .  A
C304        O311   1.258       .  A
C304        O305   1.261       .  A
C304        C551   1.479       .  S
C306        O308   1.255       .  A
C306        O312   1.266       .  A
C306       C1021   1.467       .  S
C310        C601   1.469       .  S
In313       O315   2.266       .  S
In313       O316   2.224       .  S
In313       O324   2.248       .  S
In313       O318   2.256       .  S
In313       O320   2.286       .  S
In313       O321   2.224       .  S
In313       O322   2.207       .  S
In313       O325   2.258       .  S
C314        O320   1.266       .  A
C314        O322   1.258       .  A
C314        C508   1.480       .  S
O315        C323   1.266       .  A
O316        C323   1.258       .  A
C317        O324   1.257       .  A
C317        O318   1.259       .  A
C317        C531   1.477       .  S
C319        O321   1.258       .  A
C319        O325   1.261       .  A
C319        C518   1.472       .  S
C323        C561   1.478       .  S
In326       O328   2.263       .  S
In326       O329   2.225       .  S
In326       O337   2.252       .  S
In326       O331   2.266       .  S
In326       O333   2.281       .  S
In326       O334   2.226       .  S
In326       O335   2.224       .  S
In326       O338   2.259       .  S
C327        O333   1.265       .  A
C327        O335   1.258       .  A
C327        C498   1.479       .  S
O328        C336   1.265       .  A
O329        C336   1.258       .  A
C330        O337   1.254       .  A
C330        O331   1.257       .  A
C330        C528   1.477       .  S
C332        O334   1.258       .  A
C332        O338   1.262       .  A
C332        C488   1.472       .  S
C336        C761   1.475       .  S
In339       O341   2.261       .  S
In339       O342   2.221       .  S
In339       O350   2.248       .  S
In339       O344   2.269       .  S
In339       O346   2.280       .  S
In339       O347   2.225       .  S
In339       O348   2.225       .  S
In339       O351   2.270       .  S
C340        O346   1.264       .  A
C340        O348   1.259       .  A
C340        C468   1.479       .  S
O341        C349   1.262       .  A
O342        C349   1.259       .  A
C343        O350   1.254       .  A
C343        O344   1.258       .  A
C343        C478   1.479       .  S
C345        O347   1.257       .  A
C345        O351   1.264       .  A
C345        C541   1.476       .  S
C349        C521   1.470       .  S
In352       O354   2.254       .  S
In352       O355   2.228       .  S
In352       O363   2.258       .  S
In352       O357   2.258       .  S
In352       O359   2.280       .  S
In352       O360   2.231       .  S
In352       O361   2.224       .  S
In352       O364   2.264       .  S
C353        O359   1.264       .  A
C353        O361   1.259       .  A
C353        C458   1.479       .  S
O354        C362   1.261       .  A
O355        C362   1.259       .  A
C356        O363   1.256       .  A
C356        O357   1.257       .  A
C356        C481   1.479       .  S
C358        O360   1.258       .  A
C358        O364   1.264       .  A
C358        C821   1.477       .  S
C362        C491   1.472       .  S
In365       O367   2.256       .  S
In365       O368   2.210       .  S
In365       O376   2.212       .  S
In365       O370   2.291       .  S
In365       O372   2.280       .  S
In365       O373   2.200       .  S
In365       O374   2.225       .  S
In365       O377   2.290       .  S
C366        O372   1.263       .  A
C366        O374   1.257       .  A
C366        C501   1.480       .  S
O367        C375   1.263       .  A
O368        C375   1.260       .  A
C369        O376   1.255       .  A
C369        O370   1.263       .  A
C369        C448   1.478       .  S
C371        O373   1.254       .  A
C371        O377   1.267       .  A
C371        C718   1.476       .  S
C375        C438   1.468       .  S
In378       O380   2.251       .  S
In378       O381   2.207       .  S
In378       O389   2.204       .  S
In378       O383   2.290       .  S
In378       O385   2.301       .  S
In378       O386   2.235       .  S
In378       O387   2.202       .  S
In378       O390   2.256       .  S
C379        O385   1.265       .  A
C379        O387   1.254       .  A
C379        C511   1.479       .  S
O380        C388   1.264       .  A
O381        C388   1.261       .  A
C382        O389   1.255       .  A
C382        O383   1.265       .  A
C382        C451   1.470       .  S
C384        O386   1.257       .  A
C384        O390   1.262       .  A
C384        C641   1.477       .  S
C388        C428   1.461       .  S
In391       O393   2.259       .  S
In391       O394   2.226       .  S
In391       O402   2.239       .  S
In391       O396   2.275       .  S
In391       O398   2.286       .  S
In391       O399   2.214       .  S
In391       O400   2.222       .  S
In391       O403   2.256       .  S
C392        O398   1.265       .  A
C392        O400   1.256       .  A
C392        C461   1.481       .  S
O393        C401   1.266       .  A
O394        C401   1.259       .  A
C395        O402   1.255       .  A
C395        O396   1.261       .  A
C395        C418   1.479       .  S
C397        O399   1.259       .  A
C397        O403   1.263       .  A
C397        C441   1.468       .  S
C401        C701   1.477       .  S
In404       O406   2.272       .  S
In404       O407   2.219       .  S
In404       O415   2.250       .  S
In404       O409   2.259       .  S
In404       O411   2.286       .  S
In404       O412   2.210       .  S
In404       O413   2.222       .  S
In404       O416   2.263       .  S
C405        O411   1.264       .  A
C405        O413   1.256       .  A
C405        C471   1.481       .  S
O406        C414   1.266       .  A
O407        C414   1.257       .  A
C408        O415   1.258       .  A
C408        O409   1.260       .  A
C408        C421   1.479       .  S
C410        O412   1.258       .  A
C410        O416   1.263       .  A
C410        C431   1.468       .  S
C414        C611   1.467       .  S
C417        C418   1.404   1_556  A
C417        C422   1.401       .  A
C417        H423   1.083       .  S
C418        C419   1.406       .  A
C419        C420   1.398       .  A
C419        H424   1.084       .  S
C420        C421   1.404   1_554  A
C420        H425   1.083       .  S
C421        C422   1.406       .  A
C422        H426   1.083       .  S
C427        C428   1.403       .  A
C427        C432   1.401   1_455  A
C427        H433   1.083       .  S
C428        C429   1.398       .  A
C429        C430   1.388   1_455  A
C429        H434   1.083       .  S
C430        C431   1.403       .  A
C430        H435   1.083       .  S
C431        C432   1.405       .  A
C432        H436   1.083       .  S
C437        C438   1.404       .  A
C437        C442   1.400   1_455  A
C437        H443   1.083       .  S
C438        C439   1.402       .  A
C439        C440   1.388   1_455  A
C439        H444   1.083       .  S
C440        C441   1.402       .  A
C440        H445   1.083       .  S
C441        C442   1.405       .  A
C442        H446   1.083       .  S
C447        C448   1.404       .  A
C447        C452   1.388       .  A
C447        H453   1.084       .  S
C448        C449   1.408       .  A
C449        C450   1.409   1_554  A
C449        H454   1.082   1_554  S
C450        C451   1.405       .  A
C450        H455   1.083       .  S
C451        C452   1.399   1_556  A
C452        H456   1.084       .  S
C457        C458   1.402       .  A
C457        C462   1.392       .  A
C457        H463   1.083       .  S
C458        C459   1.407       .  A
C459        C460   1.408       .  A
C459        H464   1.082       .  S
C460        C461   1.407       .  A
C460        H465   1.083       .  S
C461        C462   1.405       .  A
C462        H466   1.083       .  S
C467        C468   1.407       .  A
C467        C472   1.408       .  A
C467        H473   1.082       .  S
C468        C469   1.402       .  A
C469        C470   1.392       .  A
C469        H474   1.083       .  S
C470        C471   1.405       .  A
C470        H475   1.083       .  S
C471        C472   1.407       .  A
C472        H476   1.082       .  S
C477        C478   1.404   1_554  A
C477        C482   1.400       .  A
C477        H483   1.082       .  S
C478        C479   1.406       .  A
C479        C480   1.398   1_545  A
C479        H484   1.084   1_545  S
C480        C481   1.404   1_556  A
C480        H485   1.083       .  S
C481        C482   1.406   1_565  A
C482        H486   1.083       .  S
C487        C488   1.404       .  A
C487        C492   1.400   1_455  A
C487        H493   1.083       .  S
C488        C489   1.403       .  A
C489        C490   1.392   1_455  A
C489        H494   1.083       .  S
C490        C491   1.403       .  A
C490        H495   1.083       .  S
C491        C492   1.405       .  A
C492        H496   1.083       .  S
C497        C498   1.407       .  A
C497        C502   1.408       .  A
C497        H503   1.083       .  S
C498        C499   1.402       .  A
C499        C500   1.392       .  A
C499        H504   1.083       .  S
C500        C501   1.404       .  A
C500        H505   1.083       .  S
C501        C502   1.407       .  A
C502        H506   1.082       .  S
C507        C508   1.402       .  A
C507        C512   1.387       .  A
C507        H513   1.083       .  S
C508        C509   1.409       .  A
C509        C510   1.410       .  A
C509        H514   1.082       .  S
C510        C511   1.407       .  A
C510        H515   1.083       .  S
C511        C512   1.403       .  A
C512        H516   1.083       .  S
C517        C518   1.406       .  A
C517        C522   1.401   1_455  A
C517        H523   1.083       .  S
C518        C519   1.403       .  A
C519        C520   1.391   1_455  A
C519        H524   1.083       .  S
C520        C521   1.402       .  A
C520        H525   1.083       .  S
C521        C522   1.404       .  A
C522        H526   1.083       .  S
C527        C528   1.406   1_545  A
C527        C532   1.398       .  A
C527        H533   1.083       .  S
C528        C529   1.404   1_554  A
C529        C530   1.399   1_565  A
C529        H534   1.083       .  S
C530        C531   1.406       .  A
C530        H535   1.083       .  S
C531        C532   1.403   1_556  A
C532        H536   1.083       .  S
C537        C538   1.408       .  A
C537        C542   1.400       .  A
C537        H543   1.083       .  S
C538        C539   1.402       .  A
C539        C540   1.397       .  A
C539        H544   1.083       .  S
C540        C541   1.406       .  A
C540        H545   1.083       .  S
C541        C542   1.402       .  A
C542        H546   1.083       .  S
C547        C548   1.406       .  A
C547        C552   1.399       .  A
C547        H553   1.083       .  S
C548        C549   1.404       .  A
C549        C550   1.399       .  A
C549        H554   1.083       .  S
C550        C551   1.406       .  A
C550        H555   1.083       .  S
C551        C552   1.404       .  A
C552        H556   1.083       .  S
C557        C558   1.407       .  A
C557        C562   1.400       .  A
C557        H563   1.083       .  S
C558        C559   1.402       .  A
C559        C560   1.398       .  A
C559        H564   1.083       .  S
C560        C561   1.407       .  A
C560        H565   1.083       .  S
C561        C562   1.403       .  A
C562        H566   1.083       .  S
C567        C568   1.406       .  A
C567        C572   1.406   1_655  A
C567        H573   1.083       .  S
C568        C569   1.404       .  A
C569        C570   1.395   1_655  A
C569        H574   1.083       .  S
C570        C571   1.405       .  A
C570        H575   1.083       .  S
C571        C572   1.407       .  A
C572        H576   1.083       .  S
C577        C578   1.407       .  A
C577        C582   1.408       .  A
C577        H583   1.082       .  S
C578        C579   1.403       .  A
C579        C580   1.392       .  A
C579        H584   1.083       .  S
C580        C581   1.404       .  A
C580        H585   1.083       .  S
C581        C582   1.407       .  A
C582        H586   1.082       .  S
C587        C588   1.406       .  A
C587        C592   1.400       .  A
C587        H593   1.083       .  S
C588        C589   1.404       .  A
C589        C590   1.398       .  A
C589        H594   1.083       .  S
C590        C591   1.406       .  A
C590        H595   1.083       .  S
C591        C592   1.404       .  A
C592        H596   1.083       .  S
C597        C598   1.405       .  A
C597        C602   1.401       .  A
C597        H603   1.083       .  S
C598        C599   1.401       .  A
C599        C600   1.387       .  A
C599        H604   1.083       .  S
C600        C601   1.402       .  A
C600        H605   1.083       .  S
C601        C602   1.404       .  A
C602        H606   1.083       .  S
C607        C608   1.408       .  A
C607        C612   1.408       .  A
C607        H613   1.083       .  S
C608        C609   1.404       .  A
C609        C610   1.390       .  A
C609        H614   1.083       .  S
C610        C611   1.398       .  A
C610        H615   1.084       .  S
C611        C612   1.404       .  A
C612        H616   1.082       .  S
C617        C618   1.403       .  A
C617        C622   1.391       .  A
C617        H623   1.083       .  S
C618        C619   1.405       .  A
C619        C620   1.401       .  A
C619        H624   1.083       .  S
C620        C621   1.404       .  A
C620        H625   1.083       .  S
C621        C622   1.401       .  A
C622        H626   1.084       .  S
C627        C628   1.404       .  A
C627        C632   1.400       .  A
C627        H633   1.083       .  S
C628        C629   1.406       .  A
C629        C630   1.400       .  A
C629        H634   1.083       .  S
C630        C631   1.404       .  A
C630        H635   1.083       .  S
C631        C632   1.406       .  A
C632        H636   1.083       .  S
C637        C638   1.406       .  A
C637        C642   1.398       .  A
C637        H643   1.083       .  S
C638        C639   1.403       .  A
C639        C640   1.399       .  A
C639        H644   1.083       .  S
C640        C641   1.407       .  A
C640        H645   1.083       .  S
C641        C642   1.403       .  A
C642        H646   1.083       .  S
C647        C648   1.405       .  A
C647        C652   1.402       .  A
C647        H653   1.083       .  S
C648        C649   1.403       .  A
C649        C650   1.390       .  A
C649        H654   1.083       .  S
C650        C651   1.402       .  A
C650        H655   1.083       .  S
C651        C652   1.406       .  A
C652        H656   1.083       .  S
C657        C658   1.403       .  A
C657        C662   1.389   1_455  A
C657        H663   1.083       .  S
C658        C659   1.408       .  A
C659        C660   1.410   1_455  A
C659        H664   1.082       .  S
C660        C661   1.408       .  A
C660        H665   1.082       .  S
C661        C662   1.404       .  A
C662        H666   1.083       .  S
C667        C668   1.403       .  A
C667        C672   1.393       .  A
C667        H673   1.083       .  S
C668        C669   1.405       .  A
C669        C670   1.399       .  A
C669        H674   1.083       .  S
C670        C671   1.405       .  A
C670        H675   1.083       .  S
C671        C672   1.403       .  A
C672        H676   1.083       .  S
C677        C678   1.403       .  A
C677        C682   1.393       .  A
C677        H683   1.083       .  S
C678        C679   1.407       .  A
C679        C680   1.407       .  A
C679        H684   1.082       .  S
C680        C681   1.407       .  A
C680        H685   1.083       .  S
C681        C682   1.405       .  A
C682        H686   1.083       .  S
C687        C688   1.403       .  A
C687        C692   1.397       .  A
C687        H693   1.083       .  S
C688        C689   1.407       .  A
C689        C690   1.400       .  A
C689        H694   1.083       .  S
C690        C691   1.404       .  A
C690        H695   1.083       .  S
C691        C692   1.406       .  A
C692        H696   1.083       .  S
C697        C698   1.407       .  A
C697        C702   1.398       .  A
C697        H703   1.083       .  S
C698        C699   1.402       .  A
C699        C700   1.398       .  A
C699        H704   1.083       .  S
C700        C701   1.407       .  A
C700        H705   1.083       .  S
C701        C702   1.402       .  A
C702        H706   1.083       .  S
C707        C708   1.403       .  A
C707        C712   1.398       .  A
C707        H713   1.083       .  S
C708        C709   1.406       .  A
C709        C710   1.399       .  A
C709        H714   1.083       .  S
C710        C711   1.404       .  A
C710        H715   1.083       .  S
C711        C712   1.406       .  A
C712        H716   1.083       .  S
C717        C718   1.405       .  A
C717        C722   1.406       .  A
C717        H723   1.083       .  S
C718        C719   1.406       .  A
C719        C720   1.389       .  A
C719        H724   1.083       .  S
C720        C721   1.397       .  A
C720        H725   1.084       .  S
C721        C722   1.406       .  A
C722        H726   1.083       .  S
C727        C728   1.405       .  A
C727        C732   1.391   1_455  A
C727        H733   1.083       .  S
C728        C729   1.408       .  A
C729        C730   1.409   1_455  A
C729        H734   1.082       .  S
C730        C731   1.407       .  A
C730        H735   1.083       .  S
C731        C732   1.403       .  A
C732        H736   1.083       .  S
C737        C738   1.403       .  A
C737        C742   1.391       .  A
C737        H743   1.083       .  S
C738        C739   1.407       .  A
C739        C740   1.408       .  A
C739        H744   1.083       .  S
C740        C741   1.407       .  A
C740        H745   1.082       .  S
C741        C742   1.403       .  A
C742        H746   1.083       .  S
C747        C748   1.407       .  A
C747        C752   1.400       .  A
C747        H753   1.083       .  S
C748        C749   1.403       .  A
C749        C750   1.397       .  A
C749        H754   1.083       .  S
C750        C751   1.406       .  A
C750        H755   1.083       .  S
C751        C752   1.404       .  A
C752        H756   1.083       .  S
C757        C758   1.407       .  A
C757        C762   1.398       .  A
C757        H763   1.083       .  S
C758        C759   1.402       .  A
C759        C760   1.398       .  A
C759        H764   1.083       .  S
C760        C761   1.407       .  A
C760        H765   1.083       .  S
C761        C762   1.402       .  A
C762        H766   1.083       .  S
C767        C768   1.404       .  A
C767        C772   1.399       .  A
C767        H773   1.083       .  S
C768        C769   1.404       .  A
C769        C770   1.392       .  A
C769        H774   1.083       .  S
C770        C771   1.402       .  A
C770        H775   1.083       .  S
C771        C772   1.405       .  A
C772        H776   1.083       .  S
C777        C778   1.403       .  A
C777        C782   1.392       .  A
C777        H783   1.083       .  S
C778        C779   1.404       .  A
C779        C780   1.400       .  A
C779        H784   1.083       .  S
C780        C781   1.405       .  A
C780        H785   1.083       .  S
C781        C782   1.403       .  A
C782        H786   1.083       .  S
C787        C788   1.406       .  A
C787        C792   1.399       .  A
C787        H793   1.083       .  S
C788        C789   1.403       .  A
C789        C790   1.399       .  A
C789        H794   1.083       .  S
C790        C791   1.406       .  A
C790        H795   1.083       .  S
C791        C792   1.403       .  A
C792        H796   1.083       .  S
C797        C798   1.408       .  A
C797        C802   1.409       .  A
C797        H803   1.083       .  S
C798        C799   1.404       .  A
C799        C800   1.391       .  A
C799        H804   1.083       .  S
C800        C801   1.403       .  A
C800        H805   1.083       .  S
C801        C802   1.408       .  A
C802        H806   1.082       .  S
C807        C808   1.403       .  A
C807        C812   1.389       .  A
C807        H813   1.083       .  S
C808        C809   1.405       .  A
C809        C810   1.402       .  A
C809        H814   1.083       .  S
C810        C811   1.405       .  A
C810        H815   1.083       .  S
C811        C812   1.401       .  A
C812        H816   1.083       .  S
C817        C818   1.402       .  A
C817        C822   1.399       .  A
C817        H823   1.083       .  S
C818        C819   1.407       .  A
C819        C820   1.398       .  A
C819        H824   1.083       .  S
C820        C821   1.402       .  A
C820        H825   1.083       .  S
C821        C822   1.407       .  A
C822        H826   1.083       .  S
C827        C828   1.408       .  A
C827        C832   1.409   1_655  A
C827        H833   1.082       .  S
C828        C829   1.404       .  A
C829        C830   1.392   1_655  A
C829        H834   1.083       .  S
C830        C831   1.404       .  A
C830        H835   1.083       .  S
C831        C832   1.407       .  A
C832        H836   1.083       .  S
C837        C838   1.403       .  A
C837        C842   1.391       .  A
C837        H843   1.083       .  S
C838        C839   1.405       .  A
C839        C840   1.401       .  A
C839        H844   1.083       .  S
C840        C841   1.405       .  A
C840        H845   1.083       .  S
C841        C842   1.402       .  A
C842        H846   1.083       .  S
C847        C848   1.407       .  A
C847        C852   1.400       .  A
C847        H853   1.083       .  S
C848        C849   1.403       .  A
C849        C850   1.399       .  A
C849        H854   1.083       .  S
C850        C851   1.407       .  A
C850        H855   1.083       .  S
C851        C852   1.404       .  A
C852        H856   1.083       .  S
C857        C858   1.407       .  A
C857        C862   1.398       .  A
C857        H863   1.083       .  S
C858        C859   1.402       .  A
C859        C860   1.400       .  A
C859        H864   1.083       .  S
C860        C861   1.408       .  A
C860        H865   1.083       .  S
C861        C862   1.402       .  A
C862        H866   1.083       .  S
C867        C868   1.407       .  A
C867        C872   1.398       .  A
C867        H873   1.083       .  S
C868        C869   1.402       .  A
C869        C870   1.398       .  A
C869        H874   1.083       .  S
C870        C871   1.407       .  A
C870        H875   1.083       .  S
C871        C872   1.402       .  A
C872        H876   1.083       .  S
C877        C878   1.406       .  A
C877        C882   1.399       .  A
C877        H883   1.083       .  S
C878        C879   1.404       .  A
C879        C880   1.400       .  A
C879        H884   1.083       .  S
C880        C881   1.406       .  A
C880        H885   1.083       .  S
C881        C882   1.403       .  A
C882        H886   1.083       .  S
C887        C888   1.406       .  A
C887        C892   1.399       .  A
C887        H893   1.083       .  S
C888        C889   1.402       .  A
C889        C890   1.398       .  A
C889        H894   1.083       .  S
C890        C891   1.406       .  A
C890        H895   1.083       .  S
C891        C892   1.402       .  A
C892        H896   1.083       .  S
C897        C898   1.405       .  A
C897        C902   1.401       .  A
C897        H903   1.083       .  S
C898        C899   1.402       .  A
C899        C900   1.390       .  A
C899        H904   1.083       .  S
C900        C901   1.402       .  A
C900        H905   1.083       .  S
C901        C902   1.405       .  A
C902        H906   1.083       .  S
C907        C908   1.407       .  A
C907        C912   1.400       .  A
C907        H913   1.083       .  S
C908        C909   1.402       .  A
C909        C910   1.396       .  A
C909        H914   1.083       .  S
C910        C911   1.406       .  A
C910        H915   1.083       .  S
C911        C912   1.402       .  A
C912        H916   1.083       .  S
C917        C918   1.403       .  A
C917        C922   1.389       .  A
C917        H923   1.083       .  S
C918        C919   1.405       .  A
C919        C920   1.401       .  A
C919        H924   1.083       .  S
C920        C921   1.405       .  A
C920        H925   1.083       .  S
C921        C922   1.402       .  A
C922        H926   1.083       .  S
C927        C928   1.406       .  A
C927        C932   1.399       .  A
C927        H933   1.083       .  S
C928        C929   1.404       .  A
C929        C930   1.399       .  A
C929        H934   1.083       .  S
C930        C931   1.407       .  A
C930        H935   1.083       .  S
C931        C932   1.403       .  A
C932        H936   1.083       .  S
C937        C938   1.408       .  A
C937        C942   1.399       .  A
C937        H943   1.083       .  S
C938        C939   1.402       .  A
C939        C940   1.397       .  A
C939        H944   1.083       .  S
C940        C941   1.407       .  A
C940        H945   1.083       .  S
C941        C942   1.402       .  A
C942        H946   1.083       .  S
C947        C948   1.408       .  A
C947        C952   1.409       .  A
C947        H953   1.082       .  S
C948        C949   1.403       .  A
C949        C950   1.390       .  A
C949        H954   1.083       .  S
C950        C951   1.404       .  A
C950        H955   1.083       .  S
C951        C952   1.408       .  A
C952        H956   1.083       .  S
C957        C958   1.402       .  A
C957        C962   1.398       .  A
C957        H963   1.083       .  S
C958        C959   1.407       .  A
C959        C960   1.398       .  A
C959        H964   1.083       .  S
C960        C961   1.402       .  A
C960        H965   1.083       .  S
C961        C962   1.407       .  A
C962        H966   1.083       .  S
C967        C968   1.407       .  A
C967        C972   1.409       .  A
C967        H973   1.083       .  S
C968        C969   1.404       .  A
C969        C970   1.391       .  A
C969        H974   1.083       .  S
C970        C971   1.403       .  A
C970        H975   1.083       .  S
C971        C972   1.408       .  A
C972        H976   1.082       .  S
C977        C978   1.403       .  A
C977        C982   1.399   1_565  A
C977        H983   1.083       .  S
C978        C979   1.406   1_565  A
C979        C980   1.399       .  A
C979        H984   1.083       .  S
C980        C981   1.403       .  A
C980        H985   1.083       .  S
C981        C982   1.406       .  A
C982        H986   1.083   1_545  S
C987        C988   1.402       .  A
C987        C992   1.397       .  A
C987        H993   1.083       .  S
C988        C989   1.408       .  A
C989        C990   1.399       .  A
C989        H994   1.083       .  S
C990        C991   1.402       .  A
C990        H995   1.083       .  S
C991        C992   1.407       .  A
C992        H996   1.083       .  S
C997        C998   1.407       .  A
C997       C1002   1.409       .  A
C997       H1003   1.083       .  S
C998        C999   1.403       .  A
C999       C1000   1.391       .  A
C999       H1004   1.083       .  S
C1000      C1001   1.404       .  A
C1000      H1005   1.083       .  S
C1001      C1002   1.408       .  A
C1002      H1006   1.082       .  S
C1007      C1008   1.402       .  A
C1007      C1012   1.390       .  A
C1007      H1013   1.083       .  S
C1008      C1009   1.405       .  A
C1009      C1010   1.401       .  A
C1009      H1014   1.083       .  S
C1010      C1011   1.405       .  A
C1010      H1015   1.083       .  S
C1011      C1012   1.403       .  A
C1012      H1016   1.083       .  S
C1017      C1018   1.401       .  A
C1017      C1022   1.389       .  A
C1017      H1023   1.083       .  S
C1018      C1019   1.408       .  A
C1019      C1020   1.406       .  A
C1019      H1024   1.082       .  S
C1020      C1021   1.403       .  A
C1020      H1025   1.083       .  S
C1021      C1022   1.401       .  A
C1022      H1026   1.084       .  S
C1027      C1028   1.408       .  A
C1027      C1032   1.408       .  A
C1027      H1033   1.082       .  S
C1028      C1029   1.405       .  A
C1029      C1030   1.392       .  A
C1029      H1034   1.083       .  S
C1030      C1031   1.403       .  A
C1030      H1035   1.083       .  S
C1031      C1032   1.407       .  A
C1032      H1036   1.083       .  S
C1037      C1038   1.402       .  A
C1037      C1042   1.390       .  A
C1037      H1043   1.083       .  S
C1038      C1039   1.405       .  A
C1039      C1040   1.400       .  A
C1039      H1044   1.083       .  S
C1040      C1041   1.404       .  A
C1040      H1045   1.083       .  S
C1041      C1042   1.403       .  A
C1042      H1046   1.083       .  S
C1047      C1048   1.406       .  A
C1047      C1052   1.397   1_545  A
C1047      H1053   1.084   1_545  S
C1048      C1049   1.404       .  A
C1049      C1050   1.401       .  A
C1049      H1054   1.083       .  S
C1050      C1051   1.407   1_545  A
C1050      H1055   1.083       .  S
C1051      C1052   1.403       .  A
C1052      H1056   1.083       .  S
