geometry optimzed in LAMMPS
_audit_creation_date              2020-11-30 
_audit_creation_method            'lammps2cif' 
_symmetry_space_group_name_H-M    'P1' 
_symmetry_Int_Tables_number       1 
_symmetry_cell_setting            triclinic 
loop_ 
_symmetry_equiv_pos_as_xyz 
  x,y,z 
_cell_length_a                    30.76462994 
_cell_length_b                    29.745562982335088 
_cell_length_c                    30.16470464828817 
_cell_angle_alpha                 90.68729583083312 
_cell_angle_beta                  90.77399914745733 
_cell_angle_gamma                 90.45787705228959 
loop_ 
_atom_site_label 
_atom_site_type_symbol 
_atom_site_fract_x 
_atom_site_fract_y 
_atom_site_fract_z 
_atom_site_charge 
O1          O  0.28150697  0.66814864  0.77579973    -0.77700
O2          O  0.27065252  0.85512379  0.70428397    -0.77700
O3          O  0.28209875  0.71014173  0.66944517    -0.77700
O4          O  0.25097998  0.80057456  0.84275454    -0.77700
O5          O  0.27146593  0.78119071  0.64583687    -0.77800
O6          O  0.29449352  0.75027582  0.81709685    -0.77700
O7          O  0.26678946  0.84567281  0.77572280    -0.77700
O8          O  0.28754293  0.67911232  0.70429443    -0.77800
C9          C  0.29784159  0.65693808  0.73874746     1.12000
C10         C  0.28109647  0.86693864  0.74325047     1.11900
C11         C  0.29037275  0.74273917  0.64276899     1.12000
C12         C  0.28612819  0.77955958  0.84627118     1.11900
O13         O  0.22212573  0.70309389  0.84176901    -0.77700
O14         O  0.17977202  0.76704082  0.66955109    -0.77800
O15         O  0.20980421  0.64733464  0.70000354    -0.77700
O16         O  0.18577620  0.85467795  0.79779740    -0.77700
O17         O  0.18128858  0.83096382  0.72991095    -0.77800
O18         O  0.19075631  0.68421038  0.76066560    -0.77700
O19         O  0.17712389  0.75499529  0.81325196    -0.77700
O20         O  0.21099903  0.70982524  0.64427127    -0.77800
Co21       Co  0.24285968  0.72172504  0.78670651     1.51500
Co22       Co  0.22748762  0.80680000  0.68932769     1.51700
Co23       Co  0.22960460  0.70750721  0.70800755     1.51600
Co24       Co  0.22049576  0.80061821  0.78482754     1.51500
O25         O  0.25063498  0.76226270  0.73638272    -1.39700
C26         C  0.18690058  0.72554167  0.84378385     1.11900
C27         C  0.18727023  0.74261321  0.63671160     1.12000
C28         C  0.19165235  0.64734156  0.73746095     1.11900
C29         C  0.17972385  0.86412828  0.75697754     1.11900
O30         O  0.72228952  0.18452162  0.67615322    -0.77700
O31         O  0.75328425  0.17440749  0.80787202    -0.77700
O32         O  0.85322524  0.22814874  0.70999820    -0.77700
O33         O  0.65326733  0.24780891  0.80115283    -0.77700
O34         O  0.84842062  0.18985988  0.77436271    -0.77800
O35         O  0.66729821  0.19113771  0.75536383    -0.77700
O36         O  0.72334347  0.22908133  0.84829253    -0.77700
O37         O  0.78188449  0.18272965  0.71418390    -0.77800
C38         C  0.76073394  0.17045131  0.68032774     1.12000
C39         C  0.73236499  0.18771808  0.84235431     1.11900
C40         C  0.86950374  0.20033088  0.73842153     1.12000
C41         C  0.64484204  0.20839479  0.78630329     1.11900
O42         O  0.65083094  0.28191510  0.72888293    -0.77700
O43         O  0.83523956  0.27354339  0.77916665    -0.77800
O44         O  0.77886193  0.25997161  0.65787072    -0.77700
O45         O  0.76486752  0.31179113  0.82894062    -0.77700
O46         O  0.80077949  0.24887982  0.84231701    -0.77800
O47         O  0.70969030  0.27666173  0.66665616    -0.77700
O48         O  0.68837246  0.33104934  0.77080429    -0.77700
O49         O  0.81057209  0.31315386  0.72709592    -0.77800
Co50       Co  0.69128775  0.23342364  0.71083530     1.51500
Co51       Co  0.79144832  0.22249333  0.78154439     1.51700
Co52       Co  0.79397422  0.24794377  0.72206279     1.51600
Co53       Co  0.71012883  0.28027131  0.80874140     1.51500
O54         O  0.73891423  0.25496112  0.75443963    -1.39700
C55         C  0.65649309  0.32153503  0.74435988     1.11900
C56         C  0.83777550  0.30924195  0.75782872     1.12000
C57         C  0.74344412  0.27647419  0.64343513     1.11900
C58         C  0.79094750  0.28909091  0.85332222     1.11900
O59         O  0.64557918  0.69230570  0.21020480    -0.77700
O60         O  0.85255654  0.77847946  0.18910861    -0.77700
O61         O  0.72513443  0.81371719  0.18758333    -0.77700
O62         O  0.75538726  0.65166133  0.17427720    -0.77700
O63         O  0.78925386  0.83239353  0.20713945    -0.77800
O64         O  0.69433038  0.62121658  0.19261863    -0.77700
O65         O  0.81974201  0.71623080  0.16793944    -0.77700
O66         O  0.66667089  0.75625558  0.18892821    -0.77800
C67         C  0.63586599  0.72960729  0.19445938     1.12000
C68         C  0.85388039  0.74108048  0.16863381     1.11900
C69         C  0.75356109  0.84362741  0.19099272     1.12000
C70         C  0.73300922  0.61580787  0.17967199     1.11900
O71         O  0.71157278  0.64722793  0.27199909    -0.77700
O72         O  0.80377846  0.79887853  0.27409852    -0.77800
O73         O  0.66750785  0.75091890  0.28692223    -0.77700
O74         O  0.84749247  0.69744893  0.25973987    -0.77700
O75         O  0.83225177  0.76816046  0.26999297    -0.77800
O76         O  0.68180103  0.67765216  0.27591382    -0.77700
O77         O  0.78133603  0.63366931  0.26562182    -0.77700
O78         O  0.73426232  0.81769030  0.28556126    -0.77800
Co79       Co  0.70987760  0.68118912  0.21588647     1.51500
Co80       Co  0.79667899  0.76626086  0.21488982     1.51700
Co81       Co  0.70184968  0.78107153  0.23855710     1.51600
Co82       Co  0.79669754  0.67950058  0.21925547     1.51500
O83         O  0.74838025  0.73071597  0.23935328    -1.39700
C84         C  0.74487777  0.62419312  0.28232015     1.11900
C85         C  0.77474791  0.82149481  0.29505052     1.12000
C86         C  0.66242082  0.70953457  0.29691097     1.11900
C87         C  0.85705330  0.73509581  0.27735493     1.11900
C88         C  0.52930641  0.99602708  0.02771871     0.04700
C89         C  0.52880790  0.02955361  0.99510387     0.04700
C90         C  0.49219560  0.03375113  0.96705123     0.04700
C91         C  0.45749039  0.00280578  0.96974591     0.04700
C92         C  0.45927180  0.96781141  0.00075727     0.04700
C93         C  0.49455822  0.96513979  0.03076960     0.04700
C94         C  0.67866824  0.02296753  0.17017085     0.05600
C95         C  0.64381997  0.02617428  0.14000627    -0.10600
C96         C  0.63062317  0.98842784  0.11523187     0.03100
C97         C  0.65174336  0.94744881  0.12042825    -0.09100
C98         C  0.68680071  0.94370595  0.15022941     0.05500
C99         C  0.70024573  0.98176227  0.17495178    -0.08500
H100        H  0.62775725  0.05799380  0.13476632     0.11100
H101        H  0.64061127  0.91828702  0.10139177     0.08700
H102        H  0.72680799  0.97945733  0.19869370     0.08500
C103        C  0.67247401  0.17163347  0.03823669     0.05600
C104        C  0.64042119  0.13818073  0.03365308    -0.10600
C105        C  0.63189000  0.11733947  0.99254886     0.03100
C106        C  0.65692001  0.12835152  0.95547310    -0.09100
C107        C  0.69016993  0.16105916  0.95939635     0.05500
C108        C  0.69705146  0.18313066  0.00091071    -0.08500
H109        H  0.62171064  0.12850724  0.06230189     0.11100
H110        H  0.64963442  0.11247246  0.92371262     0.08700
H111        H  0.72238019  0.20850630  0.00446335     0.08500
C112        C  0.31041374  0.04206009  0.82607305     0.05600
C113        C  0.33853208  0.04378313  0.86317013    -0.10600
C114        C  0.36152345  0.00543797  0.87567545     0.03100
C115        C  0.35621428  0.96516656  0.85189216    -0.09100
C116        C  0.32876496  0.96265115  0.81457498     0.05500
C117        C  0.30612641  0.00140483  0.80153262    -0.08500
H118        H  0.34386657  0.07503000  0.88131155     0.11100
H119        H  0.37355308  0.93548391  0.86259143     0.08700
H120        H  0.28416820  0.99972480  0.77316185     0.08500
C121        C  0.45417936  0.20130413  0.84551534     0.05600
C122        C  0.49442595  0.21555333  0.82914418    -0.10600
C123        C  0.53260461  0.19185859  0.83827102     0.03100
C124        C  0.53077069  0.15388034  0.86517030    -0.09100
C125        C  0.49094113  0.14007602  0.88283045     0.05500
C126        C  0.45263412  0.16357522  0.87301756    -0.08500
H127        H  0.49590604  0.24467780  0.80788402     0.11100
H128        H  0.56028049  0.13585831  0.87325560     0.08700
H129        H  0.42183390  0.15146479  0.88537853     0.08500
C130        C  0.46180415  0.81205156  0.17150083     0.05600
C131        C  0.50142812  0.78956445  0.17822424    -0.10600
C132        C  0.53968306  0.80478448  0.15806399     0.03100
C133        C  0.53751246  0.84240743  0.13033039    -0.09100
C134        C  0.49802342  0.86423435  0.12247466     0.05500
C135        C  0.46027139  0.84941424  0.14346382    -0.08500
H136        H  0.50231775  0.76090844  0.19999341     0.11100
H137        H  0.56665186  0.85453365  0.11435213     0.08700
H138        H  0.42963781  0.86591248  0.13677270     0.08500
C139        C  0.32916349  0.81232653  0.04347504     0.05600
C140        C  0.35885912  0.84794033  0.04199814    -0.10600
C141        C  0.37069736  0.86539406  0.00112697     0.03100
C142        C  0.35287291  0.84728965  0.96171536    -0.09100
C143        C  0.32265311  0.81173832  0.96342639     0.05500
C144        C  0.31136896  0.79403280  0.00440285    -0.08500
H145        H  0.37259279  0.86197540  0.07250021     0.11100
H146        H  0.36089672  0.86211671  0.93018378     0.08700
H147        H  0.28753591  0.76701864  0.00599794     0.08500
C148        C  0.96953695  0.46057695  0.00456108     0.04700
C149        C  0.99593946  0.46706216  0.96737835     0.04700
C150        C  0.02594614  0.50302273  0.96742969     0.04700
C151        C  0.02698210  0.53459005  0.00252478     0.04700
C152        C  0.99936108  0.52898198  0.03886628     0.04700
C153        C  0.97138489  0.49138167  0.04040452     0.04700
C154        C  0.15518393  0.69687846  0.96210587     0.05600
C155        C  0.12420594  0.66181245  0.96081493    -0.10600
C156        C  0.11055471  0.64210845  0.00045275     0.03100
C157        C  0.12765027  0.65725621  0.04115739    -0.09100
C158        C  0.15817459  0.69222226  0.04241420     0.05500
C159        C  0.17141288  0.71232476  0.00318622    -0.08500
H160        H  0.11246584  0.64841628  0.92927569     0.11100
H161        H  0.11736219  0.64185813  0.07175200     0.08700
H162        H  0.19580152  0.73888888  0.00456399     0.08500
C163        C  0.15576566  0.55664757  0.81819448     0.05600
C164        C  0.12605312  0.55347906  0.85264583    -0.10600
C165        C  0.11847470  0.51219170  0.87287755     0.03100
C166        C  0.14179317  0.47398447  0.86029558    -0.09100
C167        C  0.17253798  0.47685679  0.82652751     0.05500
C168        C  0.17908727  0.51822831  0.80541833    -0.08500
H169        H  0.10798485  0.58290041  0.86293585     0.11100
H170        H  0.13472478  0.44202911  0.87560252     0.08700
H171        H  0.20283177  0.52047976  0.77931604     0.08500
C172        C  0.96953350  0.69749124  0.16189461     0.05600
C173        C  0.96662454  0.65784426  0.13595873    -0.10600
C174        C  0.00304539  0.63043645  0.13070866     0.03100
C175        C  0.04247132  0.64161534  0.15183122    -0.09100
C176        C  0.04563142  0.68069766  0.17800980     0.05500
C177        C  0.00923932  0.70842669  0.18265740    -0.08500
H178        H  0.93641190  0.64755654  0.12003197     0.11100
H179        H  0.07081196  0.62094762  0.14645489     0.08700
H180        H  0.01191702  0.73894618  0.20260657     0.08500
C181        C  0.82056543  0.52394992  0.16798267     0.05600
C182        C  0.85806213  0.52286970  0.14228970    -0.10600
C183        C  0.88242741  0.48366064  0.13846191     0.03100
C184        C  0.87065516  0.44514049  0.16180763    -0.09100
C185        C  0.83368465  0.44562021  0.18869244     0.05500
C186        C  0.80847008  0.48513246  0.19124929    -0.08500
H187        H  0.86758229  0.55237805  0.12383687     0.11100
H188        H  0.88901221  0.41454864  0.15725528     0.08700
H189        H  0.77961095  0.48553015  0.21142835     0.08500
C190        C  0.03205868  0.33273213  0.81120555     0.05600
C191        C  0.99353700  0.32239504  0.78742138    -0.10600
C192        C  0.95340394  0.34138780  0.79898165     0.03100
C193        C  0.95226459  0.37220119  0.83470129    -0.09100
C194        C  0.99072350  0.38286197  0.85873385     0.05500
C195        C  0.03034536  0.36311450  0.84698369    -0.08500
H196        H  0.99455307  0.29811634  0.76033521     0.11100
H197        H  0.92147061  0.38583965  0.84525762     0.08700
H198        H  0.05981887  0.37199972  0.86526371     0.08500
C199        C  0.85595171  0.28977993  0.05006398     0.05600
C200        C  0.88274939  0.32816306  0.04907706    -0.10600
C201        C  0.89059281  0.34995290  0.00913790     0.03100
C202        C  0.87091629  0.33450872  0.96987455    -0.09100
C203        C  0.84322713  0.29685645  0.96999727     0.05500
C204        C  0.83668453  0.27375973  0.01008482    -0.08500
H205        H  0.89708349  0.34148906  0.07960686     0.11100
H206        H  0.87756394  0.35171918  0.93918904     0.08700
H207        H  0.81480955  0.24504873  0.01047276     0.08500
C208        C  0.50365110  0.45925223  0.52895197     0.04700
C209        C  0.53247363  0.45408668  0.49339359     0.04700
C210        C  0.53144266  0.48427663  0.45762917     0.04700
C211        C  0.50184863  0.52032653  0.45754453     0.04700
C212        C  0.47164764  0.52428049  0.49226039     0.04700
C213        C  0.47229063  0.49346596  0.52757419     0.04700
C214        C  0.54111268  0.35242027  0.70781663     0.05600
C215        C  0.54366357  0.37705436  0.66830590    -0.10600
C216        C  0.50614636  0.38296709  0.64156861     0.03100
C217        C  0.46611904  0.36407789  0.65405803    -0.09100
C218        C  0.46304269  0.33979680  0.69346416     0.05500
C219        C  0.50048957  0.33475640  0.72009815    -0.08500
H220        H  0.57467038  0.39016515  0.65752703     0.11100
H221        H  0.43735384  0.36923068  0.63366340     0.08700
H222        H  0.49820556  0.31551795  0.75031906     0.08500
C223        C  0.32375307  0.66905145  0.46891397     0.05600
C224        C  0.35540455  0.63571766  0.46432040    -0.10600
C225        C  0.37990278  0.62245595  0.50119393     0.03100
C226        C  0.37205567  0.64159926  0.54302656    -0.09100
C227        C  0.34090524  0.67547194  0.54789990     0.05500
C228        C  0.31729947  0.68942924  0.51051761    -0.08500
H229        H  0.36200623  0.62114351  0.43203844     0.11100
H230        H  0.39008385  0.63013411  0.57179794     0.08700
H231        H  0.29261506  0.71499954  0.51398574     0.08500
C232        C  0.68312872  0.52640132  0.33288638     0.05600
C233        C  0.69911196  0.48816015  0.31080501    -0.10600
C234        C  0.67830749  0.44597514  0.31475356     0.03100
C235        C  0.64187671  0.44208754  0.34220916    -0.09100
C236        C  0.62641421  0.48011040  0.36484311     0.05500
C237        C  0.64666277  0.52188241  0.35969516    -0.08500
H238        H  0.72682333  0.49129869  0.28924265     0.11100
H239        H  0.62655115  0.40963978  0.34712488     0.08700
H240        H  0.63371265  0.55123760  0.37649352     0.08500
C241        C  0.47204911  0.66776602  0.31069526     0.05600
C242        C  0.47167261  0.63006386  0.33823732    -0.10600
C243        C  0.50889207  0.61893702  0.36314528     0.03100
C244        C  0.54728184  0.64469589  0.35920347    -0.09100
C245        C  0.54834137  0.68212691  0.33083115     0.05500
C246        C  0.51028164  0.69342272  0.30744101    -0.08500
H247        H  0.44177598  0.61119353  0.34255409     0.11100
H248        H  0.57557265  0.63593734  0.37887887     0.08700
H249        H  0.51021815  0.72279862  0.28645676     0.08500
C250        C  0.34995261  0.55532512  0.68157446     0.05600
C251        C  0.32707417  0.51780321  0.69786958    -0.10600
C252        C  0.33226489  0.47461612  0.67872824     0.03100
C253        C  0.36139378  0.46905748  0.64364188    -0.09100
C254        C  0.38460003  0.50607824  0.62774271     0.05500
C255        C  0.37861698  0.54881352  0.64639205    -0.08500
H256        H  0.30404961  0.52208895  0.72438531     0.11100
H257        H  0.36691320  0.43600712  0.62944518     0.08700
H258        H  0.39623232  0.57731010  0.63323243     0.08500
C259        C  0.68452977  0.32516692  0.54272422     0.05600
C260        C  0.64915502  0.35437886  0.53888359    -0.10600
C261        C  0.62721710  0.35923198  0.49843781     0.03100
C262        C  0.64015369  0.33477960  0.46112143    -0.09100
C263        C  0.67541134  0.30528132  0.46434622     0.05500
C264        C  0.69752554  0.30069968  0.50518428    -0.08500
H265        H  0.63836017  0.37329611  0.56762433     0.11100
H266        H  0.62372473  0.34000962  0.42964461     0.08700
H267        H  0.72441200  0.27757128  0.50748080     0.08500
C268        C  0.03960675  0.00547535  0.51512310     0.04700
C269        C  0.03718798  0.97062197  0.48328549     0.04700
C270        C  0.99988649  0.96547949  0.45585991     0.04700
C271        C  0.96358255  0.99372836  0.46216024     0.04700
C272        C  0.96539446  0.02799357  0.49520386     0.04700
C273        C  0.00455407  0.03519725  0.51937312     0.04700
C274        C  0.96679263  0.16929612  0.66840073     0.05600
C275        C  0.97011270  0.14131666  0.63132335    -0.10600
C276        C  0.00986518  0.13577839  0.61060607     0.03100
C277        C  0.04677327  0.15958640  0.62552085    -0.09100
C278        C  0.04372252  0.18883607  0.66226862     0.05500
C279        C  0.00362190  0.19291754  0.68407670    -0.08500
H280        H  0.94155770  0.12336758  0.61873648     0.11100
H281        H  0.07763465  0.15406015  0.60957180     0.08700
H282        H  0.00076971  0.21546866  0.71237641     0.08500
C283        C  0.18064148  0.04300835  0.66842281     0.05600
C284        C  0.15538890  0.04494802  0.62919986    -0.10600
C285        C  0.13328666  0.00646302  0.61315878     0.03100
C286        C  0.13709755  0.96574495  0.63579318    -0.09100
C287        C  0.16150407  0.96299697  0.67539119     0.05500
C288        C  0.18304640  0.00194977  0.69157717    -0.08500
H289        H  0.15135244  0.07655714  0.61222115     0.11100
H290        H  0.12008945  0.93615558  0.62297636     0.08700
H291        H  0.20226050  0.00034429  0.72186549     0.08500
C292        C  0.19237059  0.83185429  0.46558286     0.05600
C293        C  0.16238966  0.86642980  0.45832996    -0.10600
C294        C  0.13361902  0.87861746  0.49172196     0.03100
C295        C  0.13478680  0.85688710  0.53256566    -0.09100
C296        C  0.16386676  0.82173174  0.54003576     0.05500
C297        C  0.19293258  0.80969648  0.50648503    -0.08500
H298        H  0.15982531  0.88248113  0.42638284     0.11100
H299        H  0.11231546  0.86671593  0.55826652     0.08700
H300        H  0.21608598  0.78300959  0.51190924     0.08500
C301        C  0.80147642  0.14711438  0.55870938     0.05600
C302        C  0.78980415  0.16850904  0.51852576    -0.10600
C303        C  0.81352886  0.16224617  0.47911493     0.03100
C304        C  0.84898882  0.13316308  0.47967726    -0.09100
C305        C  0.86093974  0.11047257  0.51830958     0.05500
C306        C  0.83763562  0.11768309  0.55807645    -0.08500
H307        H  0.76187615  0.19049992  0.51784238     0.11100
H308        H  0.86649209  0.12652413  0.44937840     0.08700
H309        H  0.84730627  0.10001744  0.58771626     0.08500
C310        C  0.82315936  0.01705992  0.31281079     0.05600
C311        C  0.85586385  0.01813313  0.34565149    -0.10600
C312        C  0.86320510  0.98038010  0.37215273     0.03100
C313        C  0.83820115  0.94086498  0.36536990    -0.09100
C314        C  0.80522094  0.93940400  0.33237356     0.05500
C315        C  0.79816266  0.97773751  0.30672899    -0.08500
H316        H  0.87450728  0.04864517  0.35192168     0.11100
H317        H  0.84405606  0.91200791  0.38609301     0.08700
H318        H  0.77256413  0.97704510  0.28161885     0.08500
C319        C  0.03060901  0.81123980  0.31305380     0.05600
C320        C  0.03221825  0.84881932  0.34177365    -0.10600
C321        C  0.99504234  0.86265692  0.36417562     0.03100
C322        C  0.95564050  0.83982573  0.35722694    -0.09100
C323        C  0.95287946  0.80227489  0.32866680     0.05500
C324        C  0.99083726  0.78752958  0.30715055    -0.08500
H325        H  0.06272726  0.86635295  0.34810287     0.11100
H326        H  0.92677324  0.85167262  0.37387606     0.08700
H327        H  0.98931465  0.75883899  0.28472800     0.08500
O328        O  0.25127037  0.19311454  0.68210918    -0.77700
O329        O  0.25619469  0.32833945  0.68411345    -0.77700
O330        O  0.15555972  0.22428378  0.73156224    -0.77700
O331        O  0.34381186  0.29877807  0.74942202    -0.77700
O332        O  0.18865541  0.25905076  0.67721789    -0.77800
O333        O  0.31913186  0.26371829  0.68926387    -0.77700
O334        O  0.28571912  0.35926540  0.74425042    -0.77700
O335        O  0.21273513  0.16348545  0.73582310    -0.77800
C336        C  0.22594427  0.16223702  0.69605770     1.12000
C337        C  0.27923871  0.35929720  0.70250992     1.11900
C338        C  0.15753587  0.23465197  0.69092638     1.12000
C339        C  0.34760014  0.28890594  0.70850511     1.11900
O340        O  0.34079383  0.22475192  0.77421824    -0.77700
O341        O  0.15340497  0.29856779  0.75724169    -0.77800
O342        O  0.24474340  0.19301116  0.82190903    -0.77700
O343        O  0.24122261  0.32839148  0.82280139    -0.77700
O344        O  0.21245167  0.35879562  0.76311802    -0.77800
O345        O  0.28261358  0.16384078  0.76716561    -0.77700
O346        O  0.30696632  0.25961468  0.82853411    -0.77700
O347        O  0.17765439  0.26338615  0.81658765    -0.77800
Co348      Co  0.29409354  0.21601109  0.72783449     1.51500
Co349      Co  0.20701910  0.30664411  0.72078905     1.51700
Co350      Co  0.20223458  0.21572363  0.77693164     1.51600
Co351      Co  0.29007701  0.30699091  0.78574601     1.51500
O352        O  0.24832769  0.26127748  0.75277660    -1.39700
C353        C  0.33807452  0.23535710  0.81507809     1.11900
C354        C  0.14922371  0.28806919  0.79773639     1.12000
C355        C  0.26913072  0.16208553  0.80672214     1.11900
C356        C  0.21900807  0.35925951  0.80481145     1.11900
O357        O  0.76512030  0.13653826  0.28465286    -0.77700
O358        O  0.77663051  0.32176273  0.21187845    -0.77700
O359        O  0.80373524  0.17740390  0.15595842    -0.77700
O360        O  0.81960967  0.22986678  0.32989632    -0.77700
O361        O  0.79578780  0.25061507  0.16876078    -0.77800
O362        O  0.76083659  0.19318511  0.35227589    -0.77700
O363        O  0.82748492  0.29614251  0.25715479    -0.77700
O364        O  0.81967762  0.16803788  0.24810200    -0.77800
C365        C  0.80470893  0.13673443  0.27244016     1.12000
C366        C  0.81437005  0.32518635  0.22910212     1.11900
C367        C  0.81086831  0.21789188  0.14487120     1.12000
C368        C  0.80046931  0.20483106  0.35806949     1.11900
O369        O  0.68381582  0.23418314  0.31792093    -0.77700
O370        O  0.71692361  0.28546331  0.15115094    -0.77800
O371        O  0.73995365  0.14189585  0.20845276    -0.77700
O372        O  0.74464867  0.32870574  0.28469002    -0.77700
O373        O  0.69339496  0.29730729  0.24158444    -0.77800
O374        O  0.68505754  0.16918072  0.24580002    -0.77700
O375        O  0.73918502  0.27135774  0.34949876    -0.77700
O376        O  0.72379790  0.21253268  0.16420077    -0.77800
Co377      Co  0.72388595  0.18646052  0.29717203     1.51500
Co378      Co  0.74040858  0.26691202  0.20709460     1.51700
Co379      Co  0.77566829  0.19711723  0.20871399     1.51600
Co380      Co  0.78311393  0.27809697  0.30222688     1.51500
O381        O  0.75567695  0.23222505  0.26052964    -1.39700
C382        C  0.69914952  0.26009683  0.34830616     1.11900
C383        C  0.71086384  0.24475485  0.13882937     1.12000
C384        C  0.70042159  0.13982969  0.21941580     1.11900
C385        C  0.70620660  0.32858946  0.26840349     1.11900
O386        O  0.32729927  0.67102386  0.23960667    -0.77700
O387        O  0.18561022  0.67806837  0.25586772    -0.77700
O388        O  0.29373686  0.73141522  0.35195872    -0.77700
O389        O  0.20847240  0.74196872  0.16297060    -0.77700
O390        O  0.25212480  0.67657697  0.32435962    -0.77800
O391        O  0.24984947  0.68181657  0.17366883    -0.77700
O392        O  0.16648550  0.73460761  0.21255869    -0.77700
O393        O  0.35050894  0.72452784  0.28641632    -0.77800
C394        C  0.35564006  0.68645734  0.26698329     1.12000
C395        C  0.16028357  0.69487803  0.22672813     1.11900
C396        C  0.27910088  0.69140710  0.35336168     1.12000
C397        C  0.22134024  0.70286779  0.15098493     1.11900
O398        O  0.29268092  0.75579705  0.16287135    -0.77700
O399        O  0.22133134  0.76336674  0.35259514    -0.77800
O400        O  0.32525563  0.81034305  0.25208075    -0.77700
O401        O  0.17567901  0.81791047  0.24715582    -0.77700
O402        O  0.15716358  0.76205688  0.29132016    -0.77800
O403        O  0.34198021  0.75317468  0.20800042    -0.77700
O404        O  0.25244883  0.81475767  0.18148232    -0.77700
O405        O  0.26305889  0.81628379  0.32286398    -0.77800
Co406      Co  0.28753940  0.71673013  0.21588667     1.51500
Co407      Co  0.20784526  0.72003030  0.30319647     1.51700
Co408      Co  0.30435715  0.77072162  0.30052984     1.51600
Co409      Co  0.21730324  0.77585228  0.22023237     1.51500
O410        O  0.25433014  0.74557480  0.26307100    -1.39700
C411        C  0.27943974  0.79574420  0.15579101     1.11900
C412        C  0.23683287  0.80330678  0.35246866     1.12000
C413        C  0.34981066  0.79278223  0.22297024     1.11900
C414        C  0.14870299  0.79964939  0.27313704     1.11900
C415        C  0.07134386  0.79363764  0.29341439    -0.14000
C416        C  0.10551832  0.81983373  0.28161158    -0.29200
H417        H  0.07426541  0.75727602  0.29114793     0.15000
H418        H  0.10208432  0.85606500  0.27971854     0.15600
C419        C  0.80906508  0.05752506  0.28841405    -0.14000
C420        C  0.83058264  0.09714390  0.28526186    -0.29200
H421        H  0.77624474  0.05551234  0.27454390     0.15000
H422        H  0.86438321  0.10107764  0.29535857     0.15600
C423        C  0.82196208  0.19073543  0.40025166    -0.14000
C424        C  0.79755553  0.18233585  0.43666741    -0.29200
H425        H  0.85702919  0.18719008  0.40139603     0.15000
H426        H  0.76305558  0.18990623  0.43515849     0.15600
C427        C  0.21829410  0.81271073  0.42929914    -0.14000
C428        C  0.22567971  0.83250410  0.39014351    -0.29200
H429        H  0.22805375  0.77789168  0.43339528     0.15000
H430        H  0.22008565  0.86803325  0.38499102     0.15600
C431        C  0.20066313  0.08399823  0.68931854    -0.14000
C432        C  0.21236492  0.12248532  0.66858303    -0.29200
H433        H  0.20555816  0.08230765  0.72503434     0.15000
H434        H  0.21128570  0.12482670  0.63271912     0.15600
C435        C  0.12071147  0.21964600  0.66233035    -0.14000
C436        C  0.08210933  0.21202284  0.68206542    -0.29200
H437        H  0.12537228  0.21342342  0.62721290     0.15000
H438        H  0.07853594  0.22233568  0.71655347     0.15600
C439        C  0.99843274  0.93004039  0.42229706    -0.10900
C440        C  0.99728845  0.89985108  0.39520458    -0.12400
C441        C  0.89620603  0.98320050  0.40666380    -0.10900
C442        C  0.92546182  0.98806637  0.43352648    -0.12400
C443        C  0.92727689  0.05511967  0.50570589    -0.10900
C444        C  0.89682583  0.07915498  0.51483058    -0.12400
C445        C  0.00895567  0.07300271  0.54925640    -0.10900
C446        C  0.01206455  0.10324817  0.57568656    -0.12400
C447        C  0.10395345  0.00889945  0.57531961    -0.10900
C448        C  0.07632251  0.00846371  0.54632705    -0.12400
C449        C  0.07227724  0.93875473  0.48082681    -0.10900
C450        C  0.10108884  0.91185782  0.48370794    -0.12400
C451        C  0.69354283  0.28252344  0.42515079    -0.14000
C452        C  0.67280265  0.27506344  0.38598429    -0.29200
H453        H  0.72739247  0.27257697  0.42848784     0.15000
H454        H  0.63823308  0.28076040  0.38161939     0.15600
C455        C  0.29813126  0.39699251  0.67715655    -0.14000
C456        C  0.30936591  0.43573541  0.69863032    -0.29200
H457        H  0.30279219  0.39307366  0.64173076     0.15000
H458        H  0.30106877  0.43959559  0.73338635     0.15600
C459        C  0.43149764  0.68652788  0.29177064    -0.14000
C460        C  0.39699670  0.66260789  0.27595284    -0.29200
H461        H  0.42956773  0.72303993  0.29262253     0.15000
H462        H  0.39894398  0.62646449  0.27097590     0.15600
C463        C  0.69886776  0.40628746  0.29373391    -0.14000
C464        C  0.67875547  0.36749274  0.28074503    -0.29200
H465        H  0.73382460  0.40924729  0.28942820     0.15000
H466        H  0.64362201  0.36402937  0.28112623     0.15600
C467        C  0.30072959  0.68747481  0.43024641    -0.14000
C468        C  0.29181975  0.66489821  0.39215117    -0.29200
H469        H  0.29249260  0.72291527  0.43270667     0.15000
H470        H  0.29590323  0.62877449  0.38919601     0.15600
C471        C  0.42117037  0.32173328  0.71025915    -0.14000
C472        C  0.38696561  0.30603564  0.68557673    -0.29200
H473        H  0.41946715  0.31950531  0.74614743     0.15000
H474        H  0.38843636  0.30476448  0.64965815     0.15600
C475        C  0.44025054  0.56032148  0.49265157    -0.10900
C476        C  0.41300872  0.58900662  0.49600593    -0.12400
C477        C  0.44091873  0.49722765  0.56287738    -0.10900
C478        C  0.41496726  0.50053472  0.59228914    -0.12400
C479        C  0.50379257  0.55410613  0.42290007    -0.10900
C480        C  0.50651316  0.58298571  0.39505178    -0.12400
C481        C  0.56253553  0.47945477  0.42221662    -0.10900
C482        C  0.59053405  0.47717815  0.39474258    -0.12400
C483        C  0.56436947  0.41870807  0.49426830    -0.10900
C484        C  0.59227347  0.39066892  0.49533144    -0.12400
C485        C  0.50694437  0.43052240  0.56767292    -0.10900
C486        C  0.50812675  0.40842027  0.60108275    -0.12400
C487        C  0.84359733  0.27223913  0.09415811    -0.14000
C488        C  0.83338021  0.22906699  0.10305901    -0.29200
H489        H  0.84137304  0.29722229  0.12063709     0.15000
H490        H  0.83748759  0.20296798  0.07803041     0.15600
C491        C  0.07367845  0.31374146  0.79513219    -0.14000
C492        C  0.10915232  0.30361187  0.82024841    -0.29200
H493        H  0.07461106  0.30685172  0.75966701     0.15000
H494        H  0.10851823  0.30649643  0.85613233     0.15600
C495        C  0.81676455  0.40408412  0.20936596    -0.14000
C496        C  0.83944025  0.36618723  0.21816080    -0.29200
H497        H  0.78208013  0.40412322  0.21599627     0.15000
H498        H  0.87455818  0.36501858  0.21568170     0.15600
C499        C  0.08722433  0.69690364  0.19700905    -0.14000
C500        C  0.12095096  0.67123544  0.21006282    -0.29200
H501        H  0.08962350  0.73321166  0.20142281     0.15000
H502        H  0.11883700  0.63479636  0.20999589     0.15600
C503        C  0.19469098  0.43675126  0.80853657    -0.14000
C504        C  0.20197051  0.39794667  0.83021111    -0.29200
H505        H  0.20531244  0.43940203  0.77440016     0.15000
H506        H  0.19514952  0.39465688  0.86522771     0.15600
C507        C  0.17626178  0.70864996  0.08458143    -0.14000
C508        C  0.20214917  0.68328592  0.11024421    -0.29200
H509        H  0.17040188  0.74373160  0.09286026     0.15000
H510        H  0.21003651  0.64909032  0.10040018     0.15600
C511        C  0.05738898  0.50633929  0.93264605    -0.10900
C512        C  0.08526752  0.50880863  0.90535031    -0.12400
C513        C  0.05624065  0.57298624  0.00095202    -0.10900
C514        C  0.08066967  0.60477039  0.99973603    -0.12400
C515        C  0.99952707  0.56230863  0.07415762    -0.10900
C516        C  0.00062210  0.59223538  0.10131201    -0.12400
C517        C  0.94310772  0.48547474  0.07786402    -0.10900
C518        C  0.91714908  0.48266612  0.10719666    -0.12400
C519        C  0.94122082  0.42171633  0.00644428    -0.10900
C520        C  0.91816532  0.38899868  0.00827795    -0.12400
C521        C  0.99213808  0.43713373  0.92901850    -0.10900
C522        C  0.98995726  0.41275846  0.89673189    -0.12400
C523        C  0.31619337  0.79362473  0.08558774    -0.14000
C524        C  0.29552985  0.81819460  0.11631014    -0.29200
H525        H  0.32014093  0.75755454  0.08924404     0.15000
H526        H  0.28866219  0.85351141  0.11101279     0.15600
C527        C  0.42198906  0.79285586  0.19093236    -0.14000
C528        C  0.38796404  0.81696826  0.20557259    -0.29200
H529        H  0.42140613  0.75652504  0.19466104     0.15000
H530        H  0.38894644  0.85346975  0.20609445     0.15600
C531        C  0.37445950  0.22189911  0.84434867    -0.14000
C532        C  0.41467394  0.22264244  0.82705502    -0.29200
H533        H  0.36842280  0.20976535  0.87750362     0.15000
H534        H  0.41878309  0.23855660  0.79503706     0.15600
C535        C  0.28901579  0.08300207  0.80884009    -0.14000
C536        C  0.28099727  0.12142663  0.83197689    -0.29200
H537        H  0.28098587  0.08194076  0.77360263     0.15000
H538        H  0.28507589  0.12339915  0.86772890     0.15600
C539        C  0.68323889  0.18915071  0.08361682    -0.14000
C540        C  0.69197821  0.23264311  0.09440594    -0.29200
H541        H  0.68424285  0.16416227  0.10961343     0.15000
H542        H  0.68883647  0.25851662  0.06950475     0.15600
C543        C  0.69664951  0.06275142  0.19368405    -0.14000
C544        C  0.67493228  0.10091967  0.20291281    -0.29200
H545        H  0.73086772  0.06073599  0.20298515     0.15000
H546        H  0.64007865  0.10356727  0.19773200     0.15600
C547        C  0.39243873  0.00724027  0.91168110    -0.10900
C548        C  0.42094653  0.00593050  0.93930451    -0.12400
C549        C  0.42601929  0.93329360  0.00046687    -0.10900
C550        C  0.40023448  0.90275392  0.00006681    -0.12400
C551        C  0.56580637  0.05985370  0.99073667    -0.10900
C552        C  0.59648305  0.08534883  0.98921298    -0.12400
C553        C  0.49019574  0.07021333  0.93581371    -0.10900
C554        C  0.48964155  0.10167129  0.91112298    -0.12400
C555        C  0.49540813  0.93024459  0.06421626    -0.10900
C556        C  0.49620825  0.90074513  0.09141014    -0.12400
C557        C  0.56546156  0.99353048  0.05835906    -0.10900
C558        C  0.59527239  0.99155351  0.08426182    -0.12400
C559        C  0.79104190  0.85640924  0.32660558    -0.14000
C560        C  0.77765621  0.89898778  0.32178886    -0.29200
H561        H  0.82160119  0.85015159  0.34363659     0.15000
H562        H  0.74894035  0.90444161  0.30113712     0.15600
C563        C  0.70519833  0.89852323  0.15748860    -0.14000
C564        C  0.74366157  0.88997596  0.17751455    -0.29200
H565        H  0.68458699  0.87031980  0.14713209     0.15000
H566        H  0.76630931  0.91678770  0.18654594     0.15600
C567        C  0.89362900  0.72386352  0.14859228    -0.14000
C568        C  0.93154280  0.72661670  0.17103193    -0.29200
H569        H  0.88972291  0.70176209  0.12001219     0.15000
H570        H  0.93366731  0.74863156  0.20007626     0.15600
C571        C  0.89909968  0.74301782  0.30114589    -0.14000
C572        C  0.90866820  0.78430868  0.31774348    -0.29200
H573        H  0.92398138  0.71743419  0.29930883     0.15000
H574        H  0.88252073  0.80836966  0.32075158     0.15600
C575        C  0.73880807  0.58304506  0.30869875    -0.14000
C576        C  0.69889635  0.57249377  0.32346102    -0.29200
H577        H  0.76454654  0.55829265  0.30902896     0.15000
H578        H  0.67438554  0.59850978  0.32455597     0.15600
C579        C  0.75319937  0.57074649  0.17677944    -0.14000
C580        C  0.79625877  0.56692705  0.17005785    -0.29200
H581        H  0.73311862  0.54112595  0.18179625     0.15000
H582        H  0.81507380  0.59731131  0.16409375     0.15600
C583        C  0.59065629  0.74325182  0.18354529    -0.16400
C584        C  0.58307193  0.78454038  0.16677763    -0.29200
H585        H  0.56412865  0.72034372  0.19070025     0.15000
H586        H  0.61086688  0.80565309  0.15890958     0.15600
C587        C  0.62898176  0.69528796  0.32856436    -0.14000
C588        C  0.58809709  0.70985030  0.32251686    -0.29200
H589        H  0.63455036  0.66399360  0.34564872     0.15000
H590        H  0.58360481  0.73955627  0.30229282     0.15600
C591        C  0.87526318  0.33988337  0.76800979    -0.14000
C592        C  0.91332316  0.32011901  0.77970830    -0.29200
H593        H  0.87175134  0.37614978  0.76784496     0.15000
H594        H  0.91554995  0.28382385  0.77551168     0.15600
C595        C  0.91258870  0.18208458  0.72821960    -0.14000
C596        C  0.92309463  0.17819062  0.68521452    -0.29200
H597        H  0.93576141  0.17468323  0.75454505     0.15000
H598        H  0.89785468  0.18227356  0.65996251     0.15600
C599        C  0.71867580  0.15808282  0.87941551    -0.14000
C600        C  0.71504104  0.17748892  0.92046454    -0.29200
H601        H  0.70773335  0.12390894  0.87262547     0.15000
H602        H  0.72961876  0.21063564  0.92554743     0.15600
C603        C  0.80968045  0.30804198  0.89489688    -0.14000
C604        C  0.82205023  0.28062403  0.92822758    -0.29200
H605        H  0.81207952  0.34431768  0.89870799     0.15000
H606        H  0.81561182  0.24472052  0.92518685     0.15600
C607        C  0.60585964  0.18523952  0.80343617    -0.14000
C608        C  0.57402923  0.21003863  0.82168425    -0.29200
H609        H  0.60218489  0.14908281  0.79937210     0.15000
H610        H  0.57690464  0.24650546  0.82175873     0.15600
C611        C  0.62124088  0.35350049  0.73287608    -0.14000
C612        C  0.58000849  0.33702595  0.73350955    -0.29200
H613        H  0.62896358  0.38544488  0.71776020     0.15000
H614        H  0.57493445  0.30593668  0.75152171     0.15600
C615        C  0.73873380  0.29350541  0.59778343    -0.14000
C616        C  0.70321545  0.31802807  0.58760774    -0.29200
H617        H  0.76095266  0.28191201  0.57257753     0.15000
H618        H  0.68377502  0.33095274  0.61472704     0.15600
C619        C  0.78395838  0.14770076  0.64244142    -0.14000
C620        C  0.77435247  0.15737226  0.59937509    -0.29200
H621        H  0.81360135  0.12974677  0.65018424     0.15000
H622        H  0.74593073  0.17808817  0.59359772     0.15600
C623        C  0.29741195  0.79747123  0.92397262    -0.14000
C624        C  0.31510971  0.78859598  0.88446857    -0.29200
H625        H  0.26242771  0.79391702  0.92780705     0.15000
H626        H  0.35013372  0.78778331  0.88059711     0.15600
C627        C  0.15825185  0.71675474  0.88152032    -0.14000
C628        C  0.17704454  0.71261446  0.92180189    -0.29200
H629        H  0.12339106  0.71304345  0.87661646     0.15000
H630        H  0.21154453  0.72052186  0.92548476     0.15600
C631        C  0.17326253  0.91075759  0.74054133    -0.14000
C632        C  0.16542074  0.91811862  0.69690985    -0.29200
H633        H  0.17621543  0.93873939  0.76382363     0.15000
H634        H  0.16081282  0.88908797  0.67505783     0.15600
C635        C  0.30578268  0.90901793  0.75296733    -0.14000
C636        C  0.31968831  0.91749735  0.79491333    -0.29200
H637        H  0.30621970  0.93526722  0.72827786     0.15000
H638        H  0.32116333  0.88970466  0.81800428     0.15600
C639        C  0.31695501  0.73305492  0.60321593    -0.14000
C640        C  0.32828435  0.69071635  0.59264118    -0.29200
H641        H  0.32149125  0.75965311  0.57906503     0.15000
H642        H  0.32307476  0.66384266  0.61667685     0.15600
C643        C  0.17848997  0.75794838  0.59120820    -0.14000
C644        C  0.16453619  0.80009761  0.58402238    -0.29200
H645        H  0.18791022  0.73633215  0.56379364     0.15000
H646        H  0.15421917  0.82055919  0.61201663     0.15600
C647        C  0.32191992  0.61416437  0.73437556    -0.14000
C648        C  0.34079923  0.60222450  0.69623296    -0.29200
H649        H  0.31804988  0.58950748  0.76049595     0.15000
H650        H  0.34785136  0.62890435  0.67243240     0.15600
C651        C  0.16344412  0.60084455  0.79754800    -0.14000
C652        C  0.17391491  0.60504704  0.75469701    -0.29200
H653        H  0.16165713  0.63056582  0.81870446     0.15000
H654        H  0.17438331  0.57559936  0.73307963     0.15600
loop_ 
_geom_bond_atom_site_label_1 
_geom_bond_atom_site_label_2 
_geom_bond_distance 
_geom_bond_site_symmetry_2 
_ccdc_geom_bond_type 
O1            C9   1.274       .  A
O1          Co21   2.022       .  S
O2           C10   1.260       .  A
O2          Co22   1.993       .  S
O3           C11   1.293       .  A
O3          Co23   2.005       .  S
O4           C12   1.257       .  A
O4          Co24   1.972       .  S
O5           C11   1.290       .  A
O5          Co22   2.043       .  S
O6           C12   1.261       .  A
O6          Co21   2.001       .  S
O7           C10   1.255       .  A
O7          Co24   1.972       .  S
O8            C9   1.275       .  A
O8          Co23   1.982       .  S
C9          C647   1.483       .  S
C10         C635   1.483       .  S
C11         C639   1.482       .  S
C12         C624   1.468       .  S
O13          C26   1.279       .  A
O13         Co21   1.876       .  S
O14          C27   1.247       .  A
O14         Co22   1.960       .  S
O15          C28   1.267       .  A
O15         Co23   1.898       .  S
O16          C29   1.278       .  A
O16         Co24   1.976       .  S
O17          C29   1.275       .  A
O17         Co22   2.019       .  S
O18          C28   1.295       .  A
O18         Co21   2.085       .  S
O19          C26   1.312       .  A
O19         Co24   2.095       .  S
O20          C27   1.244       .  A
O20         Co23   2.001       .  S
Co21         O25   1.966       .  S
Co22         O25   2.076       .  S
Co23         O25   1.934       .  S
Co24         O25   2.076       .  S
C26         C627   1.474       .  S
C27         C643   1.474       .  S
C28         C652   1.471       .  S
C29         C631   1.492       .  S
O30          C38   1.263       .  A
O30         Co50   2.033       .  S
O31          C39   1.290       .  A
O31         Co51   2.020       .  S
O32          C40   1.297       .  A
O32         Co52   1.958       .  S
O33          C41   1.273       .  A
O33         Co53   2.000       .  S
O34          C40   1.310       .  A
O34         Co51   2.023       .  S
O35          C41   1.274       .  A
O35         Co50   1.996       .  S
O36          C39   1.275       .  A
O36         Co53   1.987       .  S
O37          C38   1.253       .  A
O37         Co52   1.983       .  S
C38         C619   1.512       .  S
C39         C599   1.495       .  S
C40         C595   1.471       .  S
C41         C607   1.480       .  S
O42          C55   1.272       .  A
O42         Co50   1.989       .  S
O43          C56   1.251       .  A
O43         Co51   2.024       .  S
O44          C57   1.272       .  A
O44         Co52   2.022       .  S
O45          C58   1.283       .  A
O45         Co53   2.005       .  S
O46          C58   1.277       .  A
O46         Co51   2.002       .  S
O47          C57   1.260       .  A
O47         Co50   1.949       .  S
O48          C55   1.283       .  A
O48         Co53   2.019       .  S
O49          C56   1.248       .  A
O49         Co52   2.005       .  S
Co50         O54   2.049       .  S
Co51         O54   2.055       .  S
Co52         O54   1.978       .  S
Co53         O54   2.014       .  S
C55         C611   1.488       .  S
C56         C591   1.491       .  S
C57         C615   1.479       .  S
C58         C603   1.477       .  S
O59          C67   1.249       .  A
O59         Co79   2.014       .  S
O60          C68   1.267       .  A
O60         Co80   1.930       .  S
O61          C69   1.245       .  A
O61         Co81   1.968       .  S
O62          C70   1.278       .  A
O62         Co82   2.013       .  S
O63          C69   1.245       .  A
O63         Co80   1.998       .  S
O64          C70   1.268       .  A
O64         Co79   1.962       .  S
O65          C68   1.279       .  A
O65         Co82   2.037       .  S
O66          C67   1.245       .  A
O66         Co81   1.968       .  S
C67         C583   1.486       .  S
C68         C567   1.465       .  S
C69         C564   1.475       .  S
C70         C579   1.484       .  S
O71          C84   1.274       .  A
O71         Co79   1.982       .  S
O72          C85   1.290       .  A
O72         Co80   2.031       .  S
O73          C86   1.280       .  A
O73         Co81   2.027       .  S
O74          C87   1.265       .  A
O74         Co82   2.034       .  S
O75          C87   1.269       .  A
O75         Co80   1.978       .  S
O76          C86   1.289       .  A
O76         Co79   2.020       .  S
O77          C84   1.267       .  A
O77         Co82   2.023       .  S
O78          C85   1.278       .  A
O78         Co81   2.024       .  S
Co79         O83   2.000       .  S
Co80         O83   1.973       .  S
Co81         O83   2.080       .  S
Co82         O83   2.222       .  S
C84         C575   1.480       .  S
C85         C559   1.480       .  S
C86         C587   1.476       .  S
C87         C571   1.487       .  S
C88          C89   1.409   1_564  A
C88          C93   1.409       .  A
C88         C557   1.440       .  S
C89          C90   1.407       .  A
C89         C551   1.455       .  S
C90          C91   1.408       .  A
C90         C553   1.446       .  S
C91          C92   1.409   1_546  A
C91         C548   1.446       .  S
C92          C93   1.407       .  A
C92         C549   1.443       .  S
C93         C555   1.456       .  S
C94         C543   1.473       .  S
C94          C95   1.401       .  A
C94          C99   1.407   1_545  A
C95          C96   1.396   1_545  A
C95         H100   1.084       .  S
C96          C97   1.395       .  A
C96         C558   1.428       .  S
C97          C98   1.401       .  A
C97         H101   1.085       .  S
C98         C563   1.480       .  S
C98          C99   1.404       .  A
C99         H102   1.082       .  S
C103        C539   1.491       .  S
C103        C104   1.400       .  A
C103        C108   1.409       .  A
C104        C105   1.400   1_554  A
C104        H109   1.085       .  S
C105        C106   1.407       .  A
C105        C552   1.442       .  S
C106        C107   1.409       .  A
C106        H110   1.083       .  S
C107        C600   1.495       .  S
C107        C108   1.419   1_556  A
C108        H111   1.084       .  S
C112        C535   1.485       .  S
C112        C113   1.405       .  A
C112        C117   1.415       .  A
C113        C114   1.400       .  A
C113        H118   1.083       .  S
C114        C115   1.396   1_545  A
C114        C547   1.434       .  S
C115        C116   1.399       .  A
C115        H119   1.085       .  S
C116        C636   1.485       .  S
C116        C117   1.409   1_565  A
C117        H120   1.084   1_545  S
C121        C532   1.481       .  S
C121        C122   1.403       .  A
C121        C126   1.404       .  A
C122        C123   1.400       .  A
C122        H127   1.085       .  S
C123        C608   1.476       .  S
C123        C124   1.400       .  A
C124        C125   1.403       .  A
C124        H128   1.084       .  S
C125        C126   1.405       .  A
C125        C554   1.435       .  S
C126        H129   1.083       .  S
C130        C527   1.479       .  S
C130        C131   1.409       .  A
C130        C135   1.405       .  A
C131        C132   1.406       .  A
C131        H136   1.083       .  S
C132        C584   1.490       .  S
C132        C133   1.407       .  A
C133        C134   1.401       .  A
C133        H137   1.085       .  S
C134        C135   1.401       .  A
C134        C556   1.444       .  S
C135        H138   1.084       .  S
C139        C523   1.452       .  S
C139        C140   1.395       .  A
C139        C144   1.395       .  A
C140        C141   1.395       .  A
C140        H145   1.085       .  S
C141        C142   1.402   1_554  A
C141        C550   1.431       .  S
C142        C143   1.404       .  A
C142        H146   1.084       .  S
C143        C623   1.469       .  S
C143        C144   1.396   1_556  A
C144        H147   1.085       .  S
C148        C149   1.408   1_554  A
C148        C153   1.409       .  A
C148        C519   1.444       .  S
C149        C150   1.407   1_655  A
C149        C521   1.454       .  S
C150        C151   1.406   1_556  A
C150        C511   1.440       .  S
C151        C152   1.407   1_455  A
C151        C513   1.450       .  S
C152        C153   1.407       .  A
C152        C515   1.446       .  S
C153        C517   1.447       .  S
C154        C628   1.477       .  S
C154        C155   1.407       .  A
C154        C159   1.401   1_556  A
C155        C156   1.406   1_556  A
C155        H160   1.083       .  S
C156        C157   1.397       .  A
C156        C514   1.436   1_554  S
C157        C158   1.396       .  A
C157        H161   1.085       .  S
C158        C507   1.459       .  S
C158        C159   1.396       .  A
C159        H162   1.085       .  S
C163        C651   1.480       .  S
C163        C164   1.397       .  A
C163        C168   1.407       .  A
C164        C165   1.397       .  A
C164        H169   1.085       .  S
C165        C166   1.400       .  A
C165        C512   1.429       .  S
C166        C167   1.402       .  A
C166        H170   1.083       .  S
C167        C503   1.480       .  S
C167        C168   1.407       .  A
C168        H171   1.084       .  S
C172        C568   1.487       .  S
C172        C173   1.409       .  A
C172        C177   1.399   1_655  A
C173        C174   1.401   1_655  A
C173        H178   1.081       .  S
C174        C175   1.398       .  A
C174        C516   1.434       .  S
C175        C176   1.399       .  A
C175        H179   1.084       .  S
C176        C499   1.470       .  S
C176        C177   1.403       .  A
C177        H180   1.085       .  S
C181        C580   1.487       .  S
C181        C182   1.399       .  A
C181        C186   1.408       .  A
C182        C183   1.396       .  A
C182        H187   1.085       .  S
C183        C184   1.400       .  A
C183        C518   1.435       .  S
C184        C185   1.406       .  A
C184        H188   1.083       .  S
C185        C495   1.484       .  S
C185        C186   1.415       .  A
C186        H189   1.083       .  S
C190        C491   1.488       .  S
C190        C191   1.407   1_455  A
C190        C195   1.401       .  A
C191        C192   1.408       .  A
C191        H196   1.085       .  S
C192        C592   1.489       .  S
C192        C193   1.407       .  A
C193        C194   1.411       .  A
C193        H197   1.084       .  S
C194        C195   1.405   1_655  A
C194        C522   1.443       .  S
C195        H198   1.084       .  S
C199        C487   1.488       .  S
C199        C200   1.404       .  A
C199        C204   1.412       .  A
C200        C201   1.398       .  A
C200        H205   1.085       .  S
C201        C202   1.394   1_554  A
C201        C520   1.433       .  S
C202        C203   1.402       .  A
C202        H206   1.084       .  S
C203        C604   1.484       .  S
C203        C204   1.414   1_556  A
C204        H207   1.083       .  S
C208        C209   1.409       .  A
C208        C213   1.409       .  A
C208        C485   1.458       .  S
C209        C210   1.412       .  A
C209        C483   1.445       .  S
C210        C211   1.412       .  A
C210        C481   1.450       .  S
C211        C212   1.414       .  A
C211        C479   1.460       .  S
C212        C213   1.414       .  A
C212        C475   1.449       .  S
C213        C477   1.451       .  S
C214        C612   1.495       .  S
C214        C215   1.409       .  A
C214        C219   1.408       .  A
C215        C216   1.412       .  A
C215        H220   1.083       .  S
C216        C217   1.407       .  A
C216        C486   1.446       .  S
C217        C218   1.402       .  A
C217        H221   1.084       .  S
C218        C471   1.489       .  S
C218        C219   1.406       .  A
C219        H222   1.085       .  S
C223        C467   1.470       .  S
C223        C224   1.402       .  A
C223        C228   1.404       .  A
C224        C225   1.398       .  A
C224        H229   1.084       .  S
C225        C226   1.403       .  A
C225        C476   1.438       .  S
C226        C227   1.404       .  A
C226        H230   1.084       .  S
C227        C640   1.477       .  S
C227        C228   1.402       .  A
C228        H231   1.084       .  S
C232        C576   1.483       .  S
C232        C233   1.407       .  A
C232        C237   1.398       .  A
C233        C234   1.411       .  A
C233        H238   1.083       .  S
C234        C463   1.483       .  S
C234        C235   1.407       .  A
C235        C236   1.404       .  A
C235        H239   1.083       .  S
C236        C237   1.397       .  A
C236        C482   1.438       .  S
C237        H240   1.086       .  S
C241        C459   1.481       .  S
C241        C242   1.404       .  A
C241        C246   1.402       .  A
C242        C243   1.405       .  A
C242        H247   1.084       .  S
C243        C244   1.410       .  A
C243        C480   1.449       .  S
C244        C245   1.413       .  A
C244        H248   1.082       .  S
C245        C588   1.495       .  S
C245        C246   1.404       .  A
C246        H249   1.085       .  S
C250        C648   1.489       .  S
C250        C251   1.412       .  A
C250        C255   1.402       .  A
C251        C252   1.413       .  A
C251        H256   1.083       .  S
C252        C456   1.486       .  S
C252        C253   1.405       .  A
C253        C254   1.401       .  A
C253        H257   1.083       .  S
C254        C255   1.398       .  A
C254        C478   1.438       .  S
C255        H258   1.085       .  S
C259        C616   1.482       .  S
C259        C260   1.402       .  A
C259        C264   1.403       .  A
C260        C261   1.396       .  A
C260        H265   1.085       .  S
C261        C262   1.397       .  A
C261        C484   1.433       .  S
C262        C263   1.404       .  A
C262        H266   1.083       .  S
C263        C451   1.474       .  S
C263        C264   1.408       .  A
C264        H267   1.082       .  S
C268        C269   1.406   1_545  A
C268        C273   1.406       .  A
C268        C448   1.462       .  S
C269        C270   1.412   1_455  A
C269        C449   1.444       .  S
C270        C271   1.417       .  A
C270        C439   1.453       .  S
C271        C272   1.417   1_565  A
C271        C442   1.455       .  S
C272        C273   1.413   1_655  A
C272        C443   1.465       .  S
C273        C445   1.437       .  S
C274        C596   1.468       .  S
C274        C275   1.391       .  A
C274        C279   1.402   1_655  A
C275        C276   1.391   1_655  A
C275        H280   1.086       .  S
C276        C277   1.400       .  A
C276        C446   1.424       .  S
C277        C278   1.406       .  A
C277        H281   1.083       .  S
C278        C436   1.478       .  S
C278        C279   1.411       .  A
C279        H282   1.084       .  S
C283        C431   1.491       .  S
C283        C284   1.409       .  A
C283        C288   1.416       .  A
C284        C285   1.404       .  A
C284        H289   1.083       .  S
C285        C286   1.402   1_545  A
C285        C447   1.448       .  S
C286        C287   1.406       .  A
C286        H290   1.085       .  S
C287        C632   1.496       .  S
C287        C288   1.409   1_565  A
C288        H291   1.083       .  S
C292        C427   1.474       .  S
C292        C293   1.404       .  A
C292        C297   1.406       .  A
C293        C294   1.396       .  A
C293        H298   1.083       .  S
C294        C295   1.398       .  A
C294        C450   1.433       .  S
C295        C296   1.400       .  A
C295        H299   1.085       .  S
C296        C644   1.482       .  S
C296        C297   1.405       .  A
C297        H300   1.083       .  S
C301        C620   1.522       .  S
C301        C302   1.419       .  A
C301        C306   1.421       .  A
C302        C303   1.415       .  A
C302        H307   1.084       .  S
C303        C424   1.498       .  S
C303        C304   1.398       .  A
C304        C305   1.400       .  A
C304        H308   1.084       .  S
C305        C306   1.421       .  A
C305        C444   1.454       .  S
C306        H309   1.082       .  S
C310        C419   1.483       .  S
C310        C311   1.402       .  A
C310        C315   1.404   1_545  A
C311        C312   1.404   1_545  A
C311        H316   1.083       .  S
C312        C313   1.411       .  A
C312        C441   1.446       .  S
C313        C314   1.412       .  A
C313        H317   1.083       .  S
C314        C560   1.495       .  S
C314        C315   1.402       .  A
C315        H318   1.085       .  S
C319        C415   1.490       .  S
C319        C320   1.406       .  A
C319        C324   1.415   1_455  A
C320        C321   1.399   1_455  A
C320        H325   1.084       .  S
C321        C322   1.397       .  A
C321        C440   1.441       .  S
C322        C323   1.404       .  A
C322        H326   1.085       .  S
C323        C572   1.489       .  S
C323        C324   1.414       .  A
C324        H327   1.083       .  S
O328        C336   1.278       .  A
O328       Co348   2.004       .  S
O329        C337   1.275       .  A
O329       Co349   1.994       .  S
O330        C338   1.270       .  A
O330       Co350   1.990       .  S
O331        C339   1.272       .  A
O331       Co351   2.010       .  S
O332        C338   1.273       .  A
O332       Co349   1.993       .  S
O333        C339   1.277       .  A
O333       Co348   2.002       .  S
O334        C337   1.272       .  A
O334       Co351   2.012       .  S
O335        C336   1.272       .  A
O335       Co350   2.007       .  S
C336        C432   1.490       .  S
C337        C455   1.484       .  S
C338        C435   1.478       .  S
C339        C472   1.492       .  S
O340        C353   1.273       .  A
O340       Co348   2.005       .  S
O341        C354   1.272       .  A
O341       Co349   2.009       .  S
O342        C355   1.276       .  A
O342       Co350   1.999       .  S
O343        C356   1.271       .  A
O343       Co351   1.989       .  S
O344        C356   1.271       .  A
O344       Co349   2.002       .  S
O345        C355   1.270       .  A
O345       Co348   1.997       .  S
O346        C353   1.271       .  A
O346       Co351   1.990       .  S
O347        C354   1.278       .  A
O347       Co350   2.003       .  S
Co348       O352   2.097       .  S
Co349       O352   2.096       .  S
Co350       O352   2.097       .  S
Co351       O352   2.096       .  S
C353        C531   1.477       .  S
C354        C492   1.490       .  S
C355        C536   1.483       .  S
C356        C504   1.478       .  S
O357        C365   1.277       .  A
O357       Co377   1.997       .  S
O358        C366   1.268       .  A
O358       Co378   1.971       .  S
O359        C367   1.272       .  A
O359       Co379   1.909       .  S
O360        C368   1.283       .  A
O360       Co380   2.011       .  S
O361        C367   1.297       .  A
O361       Co378   2.128       .  S
O362        C368   1.274       .  A
O362       Co377   2.008       .  S
O363        C366   1.280       .  A
O363       Co380   2.014       .  S
O364        C365   1.279       .  A
O364       Co379   1.998       .  S
C365        C420   1.479       .  S
C366        C496   1.481       .  S
C367        C488   1.487       .  S
C368        C423   1.492       .  S
O369        C382   1.274       .  A
O369       Co377   1.988       .  S
O370        C383   1.274       .  A
O370       Co378   1.916       .  S
O371        C384   1.266       .  A
O371       Co379   1.969       .  S
O372        C385   1.274       .  A
O372       Co380   1.994       .  S
O373        C385   1.282       .  A
O373       Co378   2.008       .  S
O374        C384   1.272       .  A
O374       Co377   2.003       .  S
O375        C382   1.274       .  A
O375       Co380   1.989       .  S
O376        C383   1.295       .  A
O376       Co379   2.128       .  S
Co377       O381   2.019       .  S
Co378       O381   1.977       .  S
Co379       O381   1.977       .  S
Co380       O381   2.017       .  S
C382        C452   1.472       .  S
C383        C540   1.492       .  S
C384        C544   1.471       .  S
C385        C464   1.485       .  S
O386        C394   1.272       .  A
O386       Co406   1.970       .  S
O387        C395   1.276       .  A
O387       Co407   1.995       .  S
O388        C396   1.270       .  A
O388       Co408   1.983       .  S
O389        C397   1.281       .  A
O389       Co409   2.004       .  S
O390        C396   1.270       .  A
O390       Co407   1.990       .  S
O391        C397   1.278       .  A
O391       Co406   1.988       .  S
O392        C395   1.275       .  A
O392       Co409   1.989       .  S
O393        C394   1.281       .  A
O393       Co408   2.029       .  S
C394        C460   1.485       .  S
C395        C500   1.474       .  S
C396        C468   1.469       .  S
C397        C508   1.468       .  S
O398        C411   1.279       .  A
O398       Co406   1.995       .  S
O399        C412   1.277       .  A
O399       Co407   1.996       .  S
O400        C413   1.276       .  A
O400       Co408   1.998       .  S
O401        C414   1.272       .  A
O401       Co409   1.973       .  S
O402        C414   1.278       .  A
O402       Co407   2.037       .  S
O403        C413   1.277       .  A
O403       Co406   2.006       .  S
O404        C411   1.274       .  A
O404       Co409   1.980       .  S
O405        C412   1.273       .  A
O405       Co408   1.983       .  S
Co406       O410   1.957       .  S
Co407       O410   2.034       .  S
Co408       O410   2.030       .  S
Co409       O410   1.945       .  S
C411        C524   1.463       .  S
C412        C428   1.468       .  S
C413        C528   1.477       .  S
C414        C416   1.486       .  S
C415        C416   1.358       .  D
C415        H417   1.087       .  S
C416        H418   1.086       .  S
C419        C420   1.352       .  D
C419        H421   1.089       .  S
C420        H422   1.085       .  S
C423        C424   1.363       .  D
C423        H425   1.085       .  S
C424        H426   1.087       .  S
C427        C428   1.347       .  D
C427        H429   1.089       .  S
C428        H430   1.085       .  S
C431        C432   1.359       .  D
C431        H433   1.088       .  S
C432        H434   1.085       .  S
C435        C436   1.354       .  D
C435        H437   1.085       .  S
C436        H438   1.088       .  S
C439        C440   1.207       .  T
C441        C442   1.210       .  T
C443        C444   1.216       .  T
C445        C446   1.197       .  T
C447        C448   1.211       .  T
C449        C450   1.202       .  T
C451        C452   1.350       .  D
C451        H453   1.089       .  S
C452        H454   1.085       .  S
C455        C456   1.355       .  D
C455        H457   1.085       .  S
C456        H458   1.087       .  S
C459        C460   1.352       .  D
C459        H461   1.088       .  S
C460        H462   1.086       .  S
C463        C464   1.356       .  D
C463        H465   1.088       .  S
C464        H466   1.085       .  S
C467        C468   1.348       .  D
C467        H469   1.088       .  S
C468        H470   1.086       .  S
C471        C472   1.357       .  D
C471        H473   1.087       .  S
C472        H474   1.085       .  S
C475        C476   1.205       .  T
C477        C478   1.205       .  T
C479        C480   1.212       .  T
C481        C482   1.205       .  T
C483        C484   1.202       .  T
C485        C486   1.210       .  T
C487        C488   1.351       .  D
C487        H489   1.088       .  S
C488        H490   1.086       .  S
C491        C492   1.358       .  D
C491        H493   1.088       .  S
C492        H494   1.085       .  S
C495        C496   1.357       .  D
C495        H497   1.088       .  S
C496        H498   1.085       .  S
C499        C500   1.350       .  D
C499        H501   1.088       .  S
C500        H502   1.085       .  S
C503        C504   1.352       .  D
C503        H505   1.088       .  S
C504        H506   1.085       .  S
C507        C508   1.345       .  D
C507        H509   1.087       .  S
C508        H510   1.086       .  S
C511        C512   1.199       .  T
C513        C514   1.204   1_554  T
C515        C516   1.202   1_655  T
C517        C518   1.203       .  T
C519        C520   1.202       .  T
C521        C522   1.208       .  T
C523        C524   1.343       .  D
C523        H525   1.087       .  S
C524        H526   1.086       .  S
C527        C528   1.350       .  D
C527        H529   1.088       .  S
C528        H530   1.086       .  S
C531        C532   1.349       .  D
C531        H533   1.085       .  S
C532        H534   1.089       .  S
C535        C536   1.358       .  D
C535        H537   1.088       .  S
C536        H538   1.085       .  S
C539        C540   1.354       .  D
C539        H541   1.087       .  S
C540        H542   1.086       .  S
C543        C544   1.350       .  D
C543        H545   1.088       .  S
C544        H546   1.085       .  S
C547        C548   1.203       .  T
C549        C550   1.201       .  T
C551        C552   1.208       .  T
C553        C554   1.203       .  T
C555        C556   1.209       .  T
C557        C558   1.199       .  T
C559        C560   1.344       .  D
C559        H561   1.084       .  S
C560        H562   1.088       .  S
C563        C564   1.349       .  D
C563        H565   1.088       .  S
C564        H566   1.085       .  S
C567        C568   1.342       .  D
C567        H569   1.083       .  S
C568        H570   1.088       .  S
C571        C572   1.350       .  D
C571        H573   1.085       .  S
C572        H574   1.085       .  S
C575        C576   1.348       .  D
C575        H577   1.086       .  S
C576        H578   1.085       .  S
C579        C580   1.348       .  D
C579        H581   1.085       .  S
C580        H582   1.087       .  S
C583        C584   1.355       .  D
C583        H585   1.085       .  S
C584        H586   1.087       .  S
C587        C588   1.344       .  D
C587        H589   1.083       .  S
C588        H590   1.088       .  S
C591        C592   1.359       .  D
C591        H593   1.085       .  S
C592        H594   1.088       .  S
C595        C596   1.345       .  D
C595        H597   1.086       .  S
C596        H598   1.089       .  S
C599        C600   1.366       .  D
C599        H601   1.085       .  S
C600        H602   1.088       .  S
C603        C604   1.355       .  D
C603        H605   1.086       .  S
C604        H606   1.087       .  S
C607        C608   1.350       .  D
C607        H609   1.086       .  S
C608        H610   1.088       .  S
C611        C612   1.357       .  D
C611        H613   1.085       .  S
C612        H614   1.089       .  S
C615        C616   1.353       .  D
C615        H617   1.084       .  S
C616        H618   1.088       .  S
C619        C620   1.363       .  D
C619        H621   1.085       .  S
C620        H622   1.087       .  S
C623        C624   1.341       .  D
C623        H625   1.088       .  S
C624        H626   1.086       .  S
C627        C628   1.346       .  D
C627        H629   1.085       .  S
C628        H630   1.089       .  S
C631        C632   1.356       .  D
C631        H633   1.085       .  S
C632        H634   1.087       .  S
C635        C636   1.350       .  D
C635        H637   1.086       .  S
C636        H638   1.088       .  S
C639        C640   1.345       .  D
C639        H641   1.091       .  S
C640        H642   1.098       .  S
C643        C644   1.348       .  D
C643        H645   1.085       .  S
C644        H646   1.087       .  S
C647        C648   1.341       .  D
C647        H649   1.090       .  S
C648        H650   1.099       .  S
C651        C652   1.343       .  D
C651        H653   1.086       .  S
C652        H654   1.086       .  S
