geometry optimzed in LAMMPS
_audit_creation_date              2020-11-30 
_audit_creation_method            'lammps2cif' 
_symmetry_space_group_name_H-M    'P1' 
_symmetry_Int_Tables_number       1 
_symmetry_cell_setting            triclinic 
loop_ 
_symmetry_equiv_pos_as_xyz 
  x,y,z 
_cell_length_a                    37.22852966 
_cell_length_b                    36.84472417764944 
_cell_length_c                    36.40347267124857 
_cell_angle_alpha                 90.15496261574663 
_cell_angle_beta                  90.43554245772569 
_cell_angle_gamma                 90.91225966556463 
loop_ 
_atom_site_label 
_atom_site_type_symbol 
_atom_site_fract_x 
_atom_site_fract_y 
_atom_site_fract_z 
_atom_site_charge 
O1          O  0.30754421  0.68637319  0.74100818    -0.80800
O2          O  0.28361928  0.83169312  0.70902783    -0.80900
O3          O  0.26053963  0.72575129  0.66418314    -0.80900
O4          O  0.26470158  0.77414363  0.82311167    -0.80800
O5          O  0.30295446  0.75862084  0.69284959    -0.80900
O6          O  0.30819737  0.74107323  0.80042372    -0.80900
O7          O  0.28041750  0.81362477  0.76685953    -0.80800
O8          O  0.26167372  0.66785184  0.70591513    -0.80900
C9          C  0.29394534  0.66472097  0.71701992     1.08900
C10         C  0.28929886  0.83811599  0.74299367     1.08700
C11         C  0.29216331  0.73938046  0.66539012     1.08900
C12         C  0.29588444  0.76115922  0.82604353     1.08800
O13         O  0.24038409  0.71117637  0.82061710    -0.80800
O14         O  0.23476989  0.78534271  0.67483059    -0.80900
O15         O  0.19460265  0.68397008  0.73939085    -0.80800
O16         O  0.21472902  0.82333083  0.79537077    -0.80800
O17         O  0.21841328  0.81393390  0.73542068    -0.80900
O18         O  0.24083318  0.66031526  0.76918504    -0.80800
O19         O  0.19761843  0.74718881  0.80008075    -0.80800
O20         O  0.19200824  0.74705837  0.69180320    -0.80900
Co21       Co  0.27413148  0.70270738  0.78005449     1.51500
Co22       Co  0.26408473  0.78434709  0.72004620     1.51700
Co23       Co  0.22729013  0.70852883  0.70353740     1.51600
Co24       Co  0.23584730  0.77911427  0.77752761     1.51500
O25         O  0.25042450  0.73803090  0.74489836    -1.42800
C26         C  0.20875718  0.72313504  0.82277020     1.08800
C27         C  0.20342205  0.77210245  0.67063263     1.08900
C28         C  0.20824691  0.65844275  0.75825055     1.08800
C29         C  0.20817082  0.83371274  0.76262628     1.08800
O30         O  0.72252180  0.22768564  0.66389663    -0.80800
O31         O  0.78167148  0.23424969  0.82807300    -0.80900
O32         O  0.80431138  0.19033920  0.74900991    -0.80900
O33         O  0.69735701  0.18973782  0.74915260    -0.80800
O34         O  0.83159099  0.23438843  0.77760808    -0.80900
O35         O  0.67048912  0.22928478  0.71574329    -0.80900
O36         O  0.74983725  0.19088911  0.80306830    -0.80800
O37         O  0.75146050  0.18816563  0.69549021    -0.80900
C38         C  0.73866425  0.19756185  0.66503348     1.08900
C39         C  0.76744613  0.20279775  0.83031057     1.08700
C40         C  0.83220609  0.20226969  0.76505869     1.08900
C41         C  0.66870040  0.20059046  0.73484769     1.08800
O42         O  0.69891889  0.29834018  0.74338118    -0.80800
O43         O  0.80341940  0.30111339  0.74539810    -0.80900
O44         O  0.78149582  0.25582561  0.66490755    -0.80800
O45         O  0.72197327  0.25954691  0.82887155    -0.80800
O46         O  0.75119302  0.30100861  0.79895285    -0.80900
O47         O  0.75085054  0.29764997  0.69107920    -0.80800
O48         O  0.67087658  0.25891767  0.77657848    -0.80800
O49         O  0.83125796  0.25840917  0.71672416    -0.80900
Co50       Co  0.71369017  0.26288609  0.70656616     1.51500
Co51       Co  0.78878134  0.26738462  0.78425883     1.51700
Co52       Co  0.78901377  0.22328326  0.70968309     1.51600
Co53       Co  0.71315703  0.22505241  0.78622202     1.51500
O54         O  0.75103200  0.24449047  0.74676557    -1.42800
C55         C  0.67022105  0.28814869  0.75828037     1.08800
C56         C  0.83133685  0.29051813  0.72959513     1.08900
C57         C  0.76717689  0.28684602  0.66325015     1.08800
C58         C  0.73725453  0.29048736  0.82852494     1.08800
O59         O  0.68625221  0.73692755  0.20316417    -0.80800
O60         O  0.83853328  0.78033043  0.22833519    -0.80900
O61         O  0.73954681  0.79691323  0.19371633    -0.80900
O62         O  0.75871937  0.69478807  0.18999351    -0.80800
O63         O  0.77987720  0.82774487  0.22593935    -0.80900
O64         O  0.71988691  0.67071651  0.22496762    -0.80900
O65         O  0.81366399  0.74249713  0.18947904    -0.80800
O66         O  0.67085003  0.79219735  0.21954741    -0.80900
C67         C  0.66430155  0.76394744  0.20081449     1.08900
C68         C  0.84047383  0.76146237  0.19903437     1.08700
C69         C  0.75736342  0.82602411  0.19926202     1.08900
C70         C  0.74173077  0.66674603  0.19916622     1.08800
O71         O  0.73704709  0.69783563  0.29462367    -0.80800
O72         O  0.76063364  0.80321271  0.29966053    -0.80900
O73         O  0.68579961  0.75809282  0.28318229    -0.80800
O74         O  0.83849261  0.71813383  0.26054331    -0.80800
O75         O  0.81409541  0.75520508  0.29931130    -0.80900
O76         O  0.66986752  0.70274245  0.26526981    -0.80800
O77         O  0.77942657  0.67028323  0.26357746    -0.80800
O78         O  0.72115810  0.82493656  0.26329390    -0.80900
Co79       Co  0.71496476  0.71959694  0.25018090     1.51500
Co80       Co  0.79610829  0.78937454  0.26266878     1.51700
Co81       Co  0.71565506  0.77602528  0.23711708     1.51600
Co82       Co  0.79546899  0.70849753  0.22638374     1.51500
O83         O  0.76213114  0.74838545  0.24476269    -1.42800
C84         C  0.75684400  0.67045190  0.28991490     1.08800
C85         C  0.74184402  0.82969719  0.29062687     1.08900
C86         C  0.66443544  0.72989809  0.28556754     1.08800
C87         C  0.84070899  0.73687581  0.28992525     1.08800
C88         C  0.53940016  0.00684944  0.01246381     0.01600
C89         C  0.51336877  0.97871990  0.01141467     0.01600
C90         C  0.48541734  0.97976617  0.98515332     0.01600
C91         C  0.48278382  0.00888081  0.96034702     0.01600
C92         C  0.50871423  0.03714552  0.96152277     0.01600
C93         C  0.53706882  0.03607600  0.98751076     0.01600
C94         C  0.67426451  0.01913354  0.18052916     0.79500
N95         N  0.69425837  0.98852563  0.18325551    -0.78800
C96         C  0.68850459  0.96016839  0.15970082     0.82000
N97         N  0.66311035  0.96314334  0.13282276    -0.78700
C98         C  0.64305681  0.99352941  0.13002477     0.82100
N99         N  0.64873355  0.02122582  0.15395929    -0.80400
C100        C  0.70444058  0.17096585  0.96855792     0.79500
N101        N  0.67667069  0.14669179  0.96625881    -0.78800
C102        C  0.65191807  0.14360768  0.99316296     0.82000
N103        N  0.65477700  0.16569505  0.02286610    -0.78700
C104        C  0.68192446  0.19057885  0.02603911     0.82100
N105        N  0.70690535  0.19304147  0.99875913    -0.80400
C106        C  0.32654129  0.97565040  0.81395727     0.79500
N107        N  0.35528767  0.97707022  0.83716869    -0.78800
C108        C  0.36353135  0.00741418  0.85671719     0.82000
N109        N  0.34258551  0.03690941  0.85289596    -0.78700
C110        C  0.31403891  0.03680528  0.82935648     0.82100
N111        N  0.30585048  0.00585416  0.80980914    -0.80400
C112        C  0.53198413  0.18760219  0.81090945     0.79500
N113        N  0.50312651  0.21022255  0.80747840    -0.78800
C114        C  0.47393215  0.20590970  0.83017518     0.82000
N115        N  0.47438183  0.17879002  0.85552365    -0.78700
C116        C  0.50260268  0.15630670  0.85880077     0.82100
N117        N  0.53100954  0.16095974  0.83645672    -0.80400
C118        C  0.52984509  0.81259029  0.14934900     0.79500
N119        N  0.53264013  0.84113023  0.12577409    -0.78800
C120        C  0.50428283  0.86307915  0.11910170     0.82000
N121        N  0.47258007  0.85618838  0.13608864    -0.78700
C122        C  0.46913542  0.82800669  0.15968049     0.82100
N123        N  0.49766890  0.80608744  0.16601171    -0.80400
C124        C  0.34075024  0.82743076  0.02634702     0.79500
N125        N  0.36442619  0.85568095  0.02530064    -0.78800
C126        C  0.38165593  0.86382930  0.99365520     0.82000
N127        N  0.37530092  0.84360855  0.96310720    -0.78700
C128        C  0.35197417  0.81517579  0.96362193     0.82100
N129        N  0.33474829  0.80717590  0.99550538    -0.80400
C130        C  0.01138650  0.49471502  0.96695913     0.01600
C131        C  0.98321323  0.46860815  0.96666873     0.01600
C132        C  0.95617688  0.46975997  0.99363533     0.01600
C133        C  0.95599685  0.49793048  0.01992720     0.01600
C134        C  0.98275523  0.52533707  0.01894698     0.01600
C135        C  0.01037764  0.52375160  0.99248161     0.01600
C136        C  0.15854437  0.67676984  0.02630456     0.79500
N137        N  0.16648483  0.69375463  0.99408293    -0.78800
C138        C  0.14799992  0.68487262  0.96289906     0.82000
N139        N  0.12285464  0.65801261  0.96382302    -0.78700
C140        C  0.11500811  0.64072514  0.99563467     0.82100
N141        N  0.13290881  0.65028783  0.02674387    -0.80400
C142        C  0.16501620  0.52313793  0.82285082     0.79500
N143        N  0.13678412  0.51968687  0.84580030    -0.78800
C144        C  0.13099394  0.48907306  0.86546634     0.82000
N145        N  0.15429780  0.46110615  0.86223510    -0.78700
C146        C  0.18311020  0.46349818  0.83920488     0.82100
N147        N  0.18807100  0.49476160  0.81945772    -0.80400
C148        C  0.97230728  0.69504595  0.15420017     0.79500
N149        N  0.00500629  0.69941835  0.17117979    -0.78800
C150        C  0.03174246  0.67516225  0.16517050     0.82000
N151        N  0.02582239  0.64674597  0.14216118    -0.78700
C152        C  0.99358531  0.64193538  0.12522211     0.82100
N153        N  0.96717535  0.66622993  0.13106987    -0.80400
C154        C  0.81023389  0.52786411  0.17273846     0.79500
N155        N  0.80708825  0.49963651  0.19693049    -0.78800
C156        C  0.82700587  0.46898835  0.19237326     0.82000
N157        N  0.84996288  0.46738462  0.16340419    -0.78700
C158        C  0.85310988  0.49514994  0.13914117     0.82100
N159        N  0.83285628  0.52492255  0.14388285    -0.80400
C160        C  0.01671157  0.30895996  0.82773114     0.79500
N161        N  0.99108558  0.30703112  0.80054975    -0.78800
C162        C  0.96182738  0.32920385  0.80152072     0.82000
N163        N  0.95897515  0.35332075  0.82965424    -0.78700
C164        C  0.98399862  0.35528526  0.85677097     0.82100
N165        N  0.01253379  0.33315456  0.85546751    -0.80400
C166        C  0.81479201  0.31211214  0.03239401     0.79500
N167        N  0.79434880  0.30462428  0.00170511    -0.78800
C168        C  0.79864974  0.32536020  0.97083627     0.82000
N169        N  0.82346207  0.35263780  0.97097828    -0.78700
C170        C  0.84389992  0.36011114  0.00085920     0.82100
N171        N  0.83961125  0.33957799  0.03134234    -0.80400
C172        C  0.50324939  0.45988071  0.52904025     0.01600
C173        C  0.47481872  0.48459804  0.52840644     0.01600
C174        C  0.47561605  0.51401705  0.50381112     0.01600
C175        C  0.50377841  0.51775014  0.47824751     0.01600
C176        C  0.53194096  0.49240113  0.47774142     0.01600
C177        C  0.53164362  0.46345890  0.50344149     0.01600
C178        C  0.47366752  0.29689485  0.66930992     0.79500
N179        N  0.50326128  0.29287246  0.69151947    -0.78800
C180        C  0.53283879  0.31506029  0.68699594     0.82000
N181        N  0.53222281  0.34106497  0.66055309    -0.78700
C182        C  0.50318525  0.34533099  0.63850776     0.82100
N183        N  0.47427798  0.32320165  0.64321076    -0.80400
C184        C  0.32394386  0.65748373  0.47075631     0.79500
N185        N  0.34721930  0.62965029  0.47294045    -0.78800
C186        C  0.36567293  0.62302120  0.50428900     0.82000
N187        N  0.36098933  0.64488069  0.53381606    -0.78700
C188        C  0.33776998  0.67293602  0.53274827     0.82100
N189        N  0.31903550  0.67912027  0.50084852    -0.80400
C190        C  0.67364772  0.47397651  0.31822761     0.79500
N191        N  0.69518061  0.50391179  0.31347491    -0.78800
C192        C  0.69136670  0.53421363  0.33496025     0.82000
N193        N  0.66537009  0.53406834  0.36132205    -0.78700
C194        C  0.64350745  0.50447626  0.36622587     0.82100
N195        N  0.64794066  0.47501585  0.34440839    -0.80400
C196        C  0.47323512  0.66794718  0.32610499     0.79500
N197        N  0.47132036  0.64290388  0.35347563    -0.78800
C198        C  0.49888404  0.63884515  0.37766717     0.82000
N199        N  0.52893190  0.65958427  0.37393653    -0.78700
C200        C  0.53201239  0.68422332  0.34649812     0.82100
N201        N  0.50393335  0.68850064  0.32264789    -0.80400
C202        C  0.30193136  0.46055937  0.65517309     0.79500
N203        N  0.33158065  0.45568093  0.63388639    -0.78800
C204        C  0.35636577  0.48280862  0.62951345     0.82000
N205        N  0.35108744  0.51524217  0.64571040    -0.78700
C206        C  0.32195551  0.52111323  0.66654744     0.82100
N207        N  0.29726725  0.49371958  0.67153168    -0.80400
C208        C  0.66415538  0.30524020  0.47713779     0.79500
N209        N  0.69104892  0.30212611  0.50252699    -0.78800
C210        C  0.69321005  0.32520205  0.53200379     0.82000
N211        N  0.66812803  0.35167044  0.53540997    -0.78700
C212        C  0.64134345  0.35477369  0.51008875     0.82100
N213        N  0.63973445  0.33144747  0.48155805    -0.80400
C214        C  0.02468263  0.99798465  0.53189184     0.01600
C215        C  0.02611660  0.97257484  0.50282458     0.01600
C216        C  0.99867008  0.97071644  0.47580709     0.01600
C217        C  0.97024268  0.99530162  0.47663597     0.01600
C218        C  0.96896824  0.02137652  0.50491402     0.01600
C219        C  0.99574879  0.02226923  0.53272924     0.01600
C220        C  0.96226377  0.15982285  0.69619221     0.79500
N221        N  0.96057980  0.13537901  0.66811019    -0.78800
C222        C  0.98709908  0.13348093  0.64302461     0.82000
N223        N  0.01589787  0.15561997  0.64652108    -0.78700
C224        C  0.01918306  0.17984841  0.67418297     0.82100
N225        N  0.99212358  0.18215733  0.69935658    -0.80400
C226        C  0.18666154  0.02894756  0.67713321     0.79500
N227        N  0.16039865  0.02937038  0.65073948    -0.78800
C228        C  0.13816594  0.00010222  0.64486207     0.82000
N229        N  0.14251782  0.97002318  0.66606553    -0.78700
C230        C  0.16841784  0.96855889  0.69264695     0.82100
N231        N  0.19031386  0.99826777  0.69781683    -0.80400
C232        C  0.16597338  0.82215534  0.52837615     0.79500
N233        N  0.13861144  0.84534680  0.52474695    -0.78800
C234        C  0.13398832  0.86436823  0.49356920     0.82000
N235        N  0.15749418  0.86067220  0.46563213    -0.78700
C236        C  0.18525092  0.83720972  0.46851321     0.82100
N237        N  0.18951886  0.81806025  0.50031351    -0.80400
C238        C  0.81325978  0.16323351  0.52983956     0.79500
N239        N  0.83889208  0.13736497  0.53098031    -0.78800
C240        C  0.86210165  0.13327290  0.50289952     0.82000
N241        N  0.85948071  0.15503660  0.47321638    -0.78700
C242        C  0.83390515  0.18066602  0.47070274     0.82100
N243        N  0.81071740  0.18489805  0.49944967    -0.80400
C244        C  0.82936176  0.02812349  0.31982332     0.79500
N245        N  0.85604004  0.02377177  0.34474413    -0.78800
C246        C  0.86050461  0.99205424  0.36262958     0.82000
N247        N  0.83748845  0.96401247  0.35522170    -0.78700
C248        C  0.81013809  0.96724777  0.33032394     0.82100
N249        N  0.80601180  0.99982397  0.31264274    -0.80400
C250        C  0.97332949  0.80656734  0.33532499     0.79500
N251        N  0.97289691  0.83240954  0.36205900    -0.78800
C252        C  0.00049591  0.85636692  0.36658899     0.82000
N253        N  0.02899161  0.85442267  0.34406016    -0.78700
C254        C  0.03093547  0.82889110  0.31738870     0.82100
N255        N  0.00273849  0.80480834  0.31290354    -0.80400
O256        O  0.27640109  0.17085653  0.74087069    -0.80800
O257        O  0.21441599  0.32421301  0.72742763    -0.80900
O258        O  0.16664867  0.19981876  0.73325917    -0.80900
O259        O  0.30740515  0.25313160  0.69673562    -0.80800
O260        O  0.17994000  0.25545778  0.71393294    -0.80900
O261        O  0.33356454  0.22044672  0.73847540    -0.80900
O262        O  0.25283907  0.29983008  0.69224568    -0.80800
O263        O  0.23416965  0.19429013  0.70597541    -0.80900
C264        C  0.25418476  0.16782293  0.71404591     1.08900
C265        C  0.23361393  0.32655309  0.69906245     1.08700
C266        C  0.15898786  0.22680308  0.71356229     1.08900
C267        C  0.33482421  0.23681902  0.70775349     1.08800
O268        O  0.31055692  0.25133350  0.80708977    -0.80800
O269        O  0.16550175  0.29514282  0.77269466    -0.80900
O270        O  0.21733503  0.17405381  0.77836952    -0.80800
O271        O  0.27370364  0.33168625  0.76396632    -0.80800
O272        O  0.23399148  0.30451752  0.79945793    -0.80900
O273        O  0.25612057  0.20191401  0.81164405    -0.80800
O274        O  0.33306667  0.28570848  0.76428994    -0.80800
O275        O  0.17990767  0.24029110  0.79161867    -0.80900
Co276      Co  0.29190749  0.21320184  0.77396209     1.51500
Co277      Co  0.21037966  0.27817906  0.75800799     1.51700
Co278      Co  0.21086601  0.21961749  0.74767975     1.51600
Co279      Co  0.28945487  0.29036006  0.73014162     1.51500
O280        O  0.25698734  0.25054107  0.75240350    -1.42800
C281        C  0.33682868  0.26939142  0.79482132     1.08800
C282        C  0.15788339  0.26744046  0.79154621     1.08900
C283        C  0.23950387  0.17284245  0.80466714     1.08800
C284        C  0.25300055  0.33244224  0.79188001     1.08800
O285        O  0.76397692  0.17192073  0.28694152    -0.80800
O286        O  0.80157391  0.30957574  0.25640838    -0.80900
O287        O  0.79592359  0.20158479  0.17635824    -0.80900
O288        O  0.79762220  0.26255876  0.31055667    -0.80800
O289        O  0.80447934  0.25438351  0.20157312    -0.80900
O290        O  0.75885204  0.22461360  0.33561502    -0.80900
O291        O  0.77615293  0.33471651  0.30386428    -0.80800
O292        O  0.80638577  0.19727582  0.25359319    -0.80900
C293        C  0.79575493  0.17226610  0.27528832     1.08900
C294        C  0.79634337  0.33826019  0.27584881     1.08700
C295        C  0.80436280  0.23504972  0.17214496     1.08900
C296        C  0.78905864  0.24110134  0.33619847     1.08800
O297        O  0.68787692  0.24120871  0.30882042    -0.80800
O298        O  0.73582284  0.27926055  0.17341680    -0.80900
O299        O  0.74250621  0.16800547  0.22216950    -0.80800
O300        O  0.71173003  0.31221270  0.27343116    -0.80800
O301        O  0.73546203  0.33413862  0.22525741    -0.80900
O302        O  0.69588482  0.18337401  0.25571271    -0.80800
O303        O  0.72586775  0.28126749  0.33300131    -0.80800
O304        O  0.72736954  0.22241224  0.18568858    -0.80900
Co305      Co  0.72693996  0.20888334  0.29339431     1.51500
Co306      Co  0.76698700  0.29032968  0.21727100     1.51700
Co307      Co  0.76785269  0.21533306  0.21950335     1.51600
Co308      Co  0.75606231  0.28787371  0.28820681     1.51500
O309        O  0.74348752  0.24768770  0.25504218    -1.42800
C310        C  0.69655529  0.26307544  0.33446484     1.08800
C311        C  0.72141076  0.24909349  0.16563329     1.08900
C312        C  0.71181216  0.16041865  0.23534664     1.08800
C313        C  0.71372483  0.33774471  0.25117507     1.08800
O314        O  0.31365665  0.68578725  0.24088791    -0.80800
O315        O  0.19006120  0.69761527  0.24999767    -0.80900
O316        O  0.28240781  0.73568939  0.33083669    -0.80900
O317        O  0.21742968  0.74397942  0.17244449    -0.80800
O318        O  0.24268109  0.69451891  0.31001364    -0.80900
O319        O  0.24861218  0.69413999  0.18413572    -0.80900
O320        O  0.18071353  0.74222113  0.21051184    -0.80800
O321        O  0.33210883  0.73053526  0.27768011    -0.80900
C322        C  0.33740966  0.70003499  0.26207430     1.08900
C323        C  0.17214391  0.71111361  0.22330171     1.08700
C324        C  0.26673527  0.70483516  0.33309853     1.08900
C325        C  0.22739193  0.71222076  0.16348214     1.08800
O326        O  0.28843321  0.74941470  0.17350375    -0.80800
O327        O  0.22258631  0.76576541  0.32944782    -0.80900
O328        O  0.31461672  0.79918250  0.24800694    -0.80800
O329        O  0.19119264  0.80999583  0.23528020    -0.80800
O330        O  0.17202910  0.76819384  0.27467067    -0.80900
O331        O  0.32484507  0.75183870  0.21209356    -0.80800
O332        O  0.25691270  0.79937985  0.18250341    -0.80800
O333        O  0.26154047  0.80587836  0.30655335    -0.80900
Co334      Co  0.28022579  0.72171839  0.21967360     1.51500
Co335      Co  0.21027680  0.73158668  0.28856107     1.51700
Co336      Co  0.29413947  0.76777527  0.28826632     1.51600
Co337      Co  0.22491232  0.77312688  0.21774046     1.51500
O338        O  0.25236986  0.74848892  0.25625591    -1.42800
C339        C  0.27853088  0.78077616  0.16308374     1.08800
C340        C  0.23987809  0.79579188  0.33155211     1.08900
C341        C  0.33309302  0.78390556  0.22289008     1.08800
C342        C  0.16709992  0.79739730  0.25655005     1.08800
C343        C  0.06663457  0.80311994  0.26507502    -0.27000
C344        C  0.06460067  0.82707557  0.29503749    -0.15100
C345        C  0.09596213  0.84790406  0.30444229     0.35500
C346        C  0.12850928  0.84176646  0.28649207    -0.26500
C347        C  0.13149213  0.81440902  0.26047135    -0.15700
C348        C  0.09975075  0.79658342  0.24789581     0.36600
N349        N  0.10113563  0.77088970  0.21850416    -0.90000
H350        H  0.04295405  0.78797852  0.25607769     0.17700
H351        H  0.15244730  0.85617284  0.29543226     0.17700
N352        N  0.09597663  0.87379778  0.33385408    -0.89000
H353        H  0.08439586  0.77995562  0.19734423     0.35100
H354        H  0.09016807  0.74647999  0.22812878     0.40200
H355        H  0.10417524  0.89897814  0.32341889     0.39800
H356        H  0.11487191  0.86583891  0.35353916     0.34700
C357        C  0.82765712  0.07593905  0.27006893    -0.27000
C358        C  0.82310532  0.06573222  0.30697946    -0.15100
C359        C  0.81658345  0.09279180  0.33342074     0.35500
C360        C  0.81340458  0.12900933  0.32248388    -0.26500
C361        C  0.81622157  0.13952931  0.28552549    -0.15700
C362        C  0.82417885  0.11269408  0.25906862     0.36600
N363        N  0.82579553  0.12236137  0.22091490    -0.90000
H364        H  0.83348935  0.05526199  0.24986136     0.17700
H365        H  0.80481173  0.14863204  0.34259672     0.17700
N366        N  0.81169915  0.08304976  0.37135175    -0.89000
H367        H  0.83079031  0.09946490  0.20482500     0.35100
H368        H  0.84774219  0.14007869  0.21766769     0.40200
H369        H  0.78885664  0.06625656  0.37284498     0.39800
H370        H  0.80632790  0.10595853  0.38727281     0.34700
C371        C  0.80913613  0.23351905  0.43596042    -0.27000
C372        C  0.83044221  0.20231104  0.43601766    -0.15100
C373        C  0.84652173  0.19180773  0.40208054     0.35500
C374        C  0.83684076  0.20913095  0.36936976    -0.26500
C375        C  0.81152916  0.23652644  0.36922264    -0.15700
C376        C  0.80006474  0.25088671  0.40288229     0.36600
N377        N  0.77875915  0.28288896  0.40331051    -0.90000
H378        H  0.79840267  0.24380125  0.46145665     0.17700
H379        H  0.84685948  0.19895153  0.34349670     0.17700
N380        N  0.87146658  0.16278683  0.39906696    -0.89000
H381        H  0.79288552  0.30279361  0.41827123     0.35100
H382        H  0.75514932  0.27720017  0.41749525     0.40200
H383        H  0.85929003  0.13854898  0.40759912     0.39800
H384        H  0.89399102  0.16890599  0.41530691     0.34700
C385        C  0.20643247  0.85599664  0.40621356    -0.27000
C386        C  0.20917441  0.83197786  0.43627633    -0.15100
C387        C  0.23166590  0.80155214  0.43292735     0.35500
C388        C  0.24588182  0.79312042  0.39840838    -0.26500
C389        C  0.23832799  0.81427058  0.36734622    -0.15700
C390        C  0.22089533  0.84731063  0.37181918     0.36600
N391        N  0.21589517  0.87099208  0.34120748    -0.90000
H392        H  0.19094759  0.88052910  0.40856827     0.17700
H393        H  0.26046665  0.76812490  0.39503189     0.17700
N394        N  0.23807737  0.77790487  0.46356884    -0.89000
H395        H  0.22895418  0.89560252  0.34739428     0.35100
H396        H  0.18853155  0.87639226  0.33918871     0.40200
H397        H  0.25334096  0.79259924  0.48289431     0.39800
H398        H  0.25379555  0.75595449  0.45575869     0.34700
C399        C  0.20864797  0.09166225  0.65853271    -0.27000
C400        C  0.21009744  0.06245073  0.68366014    -0.15100
C401        C  0.23325942  0.06687953  0.71469615     0.35500
C402        C  0.25075674  0.10036161  0.72139482    -0.26500
C403        C  0.24559256  0.13067330  0.69871880    -0.15700
C404        C  0.22664294  0.12525224  0.66541433     0.36600
N405        N  0.22560338  0.15391582  0.63878657    -0.90000
H406        H  0.19284347  0.08867630  0.63358874     0.17700
H407        H  0.26691261  0.10320701  0.74605756     0.17700
N408        N  0.23878865  0.03864926  0.74097152    -0.89000
H409        H  0.21112303  0.14553086  0.61545917     0.35100
H410        H  0.25195328  0.15897009  0.63024403     0.40200
H411        H  0.24957712  0.01617036  0.72770194     0.39800
H412        H  0.21423358  0.03172414  0.75300306     0.34700
C413        C  0.08464006  0.18099764  0.66308976    -0.27000
C414        C  0.05479681  0.19853355  0.67812691    -0.15100
C415        C  0.06043498  0.23228067  0.69574703     0.35500
C416        C  0.09593385  0.24464063  0.70310325    -0.26500
C417        C  0.12550050  0.22417217  0.69202662    -0.15700
C418        C  0.11944575  0.19343535  0.66974081     0.36600
N419        N  0.14839163  0.17318416  0.65490336    -0.90000
H420        H  0.08139556  0.15592174  0.64771255     0.17700
H421        H  0.10043593  0.26871942  0.71977348     0.17700
N422        N  0.03040880  0.25386306  0.70567198    -0.89000
H423        H  0.16328890  0.16235235  0.67651285     0.35100
H424        H  0.16470083  0.19114703  0.64007161     0.40200
H425        H  0.01732554  0.26088917  0.68126003     0.39800
H426        H  0.03924543  0.27819911  0.71782082     0.34700
C427        C  0.01791444  0.91833115  0.38804343    -0.27000
C428        C  0.99944310  0.88543408  0.39471431    -0.15100
C429        C  0.98090063  0.88100744  0.42805494     0.35500
C430        C  0.98092183  0.90937253  0.45372783    -0.26500
C431        C  0.99924231  0.94215971  0.44693258    -0.15700
C432        C  0.01798023  0.94677521  0.41359819     0.36600
N433        N  0.03681488  0.97985442  0.40443350    -0.90000
H434        H  0.03215251  0.92226625  0.36246758     0.17700
H435        H  0.96681786  0.90567168  0.47941924     0.17700
N436        N  0.96288530  0.84748387  0.43652793    -0.89000
H437        H  0.06407157  0.97389652  0.40228738     0.35100
H438        H  0.03461830  0.99940168  0.42503871     0.40200
H439        H  0.93589833  0.85304073  0.44150670     0.39800
H440        H  0.97408308  0.83733638  0.46076874     0.34700
C441        C  0.91465538  0.96784219  0.44878821    -0.27000
C442        C  0.94230219  0.99402375  0.44727565    -0.15100
C443        C  0.94416992  0.01763443  0.41718020     0.35500
C444        C  0.91781729  0.01552717  0.38961315    -0.26500
C445        C  0.88937552  0.98986830  0.39112250    -0.15700
C446        C  0.88844039  0.96521555  0.42105858     0.36600
N447        N  0.86118462  0.93765476  0.42464793    -0.90000
H448        H  0.91347674  0.94923979  0.47176506     0.17700
H449        H  0.91969304  0.03439174  0.36690190     0.17700
N450        N  0.97289910  0.04377235  0.41446044    -0.89000
H451        H  0.86280690  0.91995480  0.40227353     0.35100
H452        H  0.83604950  0.94988525  0.42490359     0.40200
H453        H  0.96165349  0.06953374  0.41264180     0.39800
H454        H  0.98650898  0.03891920  0.38996398     0.34700
C455        C  0.88062702  0.07044365  0.51810118    -0.27000
C456        C  0.88957963  0.10486478  0.50410378    -0.15100
C457        C  0.92446068  0.11143997  0.49068990     0.35500
C458        C  0.94946687  0.08356211  0.49094293    -0.26500
C459        C  0.94052299  0.04912561  0.50457268    -0.15700
C460        C  0.90558965  0.04233366  0.51828079     0.36600
N461        N  0.89463671  0.00771049  0.53290507    -0.90000
H462        H  0.85383679  0.06515346  0.52845317     0.17700
H463        H  0.97627790  0.08892469  0.48068190     0.17700
N464        N  0.93501960  0.14669890  0.47784092    -0.89000
H465        H  0.87417844  0.99725941  0.51591938     0.35100
H466        H  0.91543656  0.98907655  0.53236729     0.40200
H467        H  0.94409399  0.14397468  0.45087998     0.39800
H468        H  0.95666591  0.15591881  0.49399493     0.34700
C469        C  0.97042907  0.07192213  0.61959476    -0.27000
C470        C  0.98681213  0.10595298  0.61356392    -0.15100
C471        C  0.00598057  0.11220179  0.58064072     0.35500
C472        C  0.00976510  0.08384324  0.55549597    -0.26500
C473        C  0.99382783  0.04995134  0.56185977    -0.15700
C474        C  0.97376816  0.04388182  0.59382422     0.36600
N475        N  0.95701314  0.00925243  0.60017939    -0.90000
H476        H  0.95584385  0.06673892  0.64473146     0.17700
H477        H  0.02449289  0.08834025  0.53030298     0.17700
N478        N  0.02121278  0.14739890  0.57263998    -0.89000
H479        H  0.92946706  0.01322902  0.60333291     0.35100
H480        H  0.96703376  0.99913657  0.62495313     0.40200
H481        H  0.99994396  0.16538542  0.56972520     0.39800
H482        H  0.03460930  0.14716810  0.54749765     0.34700
C483        C  0.07999623  0.02564761  0.56101542    -0.27000
C484        C  0.05295554  0.99864828  0.56164157    -0.15100
C485        C  0.05352801  0.97269077  0.59029656     0.35500
C486        C  0.08166012  0.97363653  0.61637525    -0.26500
C487        C  0.10896751  0.00060561  0.61590396    -0.15700
C488        C  0.10757403  0.02712102  0.58780676     0.36600
N489        N  0.13428282  0.05542249  0.58582947    -0.90000
H490        H  0.07981858  0.04575918  0.53935787     0.17700
H491        H  0.08160994  0.95320397  0.63771135     0.17700
N492        N  0.02606797  0.94506049  0.59405061    -0.89000
H493        H  0.12129827  0.08034019  0.58729016     0.35100
H494        H  0.14675730  0.05375657  0.56025873     0.40200
H495        H  0.00572733  0.94779200  0.57443760     0.39800
H496        H  0.01388141  0.94883760  0.61952044     0.34700
C497        C  0.04737468  0.91091018  0.51280602    -0.27000
C498        C  0.05527934  0.94620259  0.50109199    -0.15100
C499        C  0.08868826  0.95430636  0.48445947     0.35500
C500        C  0.11341839  0.92645451  0.48003240    -0.26500
C501        C  0.10557437  0.89126230  0.49245946    -0.15700
C502        C  0.07209930  0.88337741  0.50847814     0.36600
N503        N  0.06297585  0.84725406  0.51999396    -0.90000
H504        H  0.02144905  0.90452724  0.52471556     0.17700
H505        H  0.13938612  0.93265654  0.46811253     0.17700
N506        N  0.09831417  0.99003193  0.47166665    -0.89000
H507        H  0.03970609  0.83893874  0.50584137     0.35100
H508        H  0.05707535  0.84804611  0.54802006     0.40200
H509        H  0.07798639  0.00858460  0.47644005     0.39800
H510        H  0.12058213  0.99902704  0.48702677     0.34700
C511        C  0.64399231  0.29949727  0.41197768    -0.27000
C512        C  0.66384948  0.28514240  0.44168103    -0.15100
C513        C  0.68559589  0.25494370  0.43522449     0.35500
C514        C  0.69230399  0.24429819  0.39891102    -0.26500
C515        C  0.67714153  0.26311881  0.36927084    -0.15700
C516        C  0.65046180  0.28858180  0.37576291     0.36600
N517        N  0.63184135  0.30487906  0.34550337    -0.90000
H518        H  0.62537127  0.32132712  0.41641616     0.17700
H519        H  0.71194576  0.22349774  0.39387417     0.17700
N520        N  0.70177993  0.23586206  0.46510275    -0.89000
H521        H  0.61306300  0.32343150  0.35499199     0.35100
H522        H  0.61728202  0.28429448  0.33196427     0.40200
H523        H  0.72960599  0.23644445  0.46161320     0.39800
H524        H  0.69313710  0.20876300  0.46352932     0.34700
C525        C  0.23238647  0.39492376  0.69807694    -0.27000
C526        C  0.24112929  0.36220226  0.68046593    -0.15100
C527        C  0.26330257  0.36408560  0.64916442     0.35500
C528        C  0.28086474  0.39703080  0.64021762    -0.26500
C529        C  0.27639637  0.42885143  0.66121459    -0.15700
C530        C  0.24966591  0.42821353  0.68883771     0.36600
N531        N  0.24153319  0.46061122  0.70898560    -0.90000
H532        H  0.21440610  0.39411308  0.72133125     0.17700
H533        H  0.29940180  0.39728216  0.61743596     0.17700
N534        N  0.26914055  0.33213176  0.62738802    -0.89000
H535        H  0.22225755  0.45514373  0.72904082     0.35100
H536        H  0.22963510  0.47861814  0.69057480     0.40200
H537        H  0.28635030  0.33791366  0.60553121     0.39800
H538        H  0.24442468  0.32432355  0.61577350     0.34700
C539        C  0.40330712  0.70972779  0.26238755    -0.27000
C540        C  0.37411456  0.68533612  0.26677202    -0.15100
C541        C  0.38031664  0.65187843  0.28368317     0.35500
C542        C  0.41373948  0.64568993  0.30084836    -0.26500
C543        C  0.44156584  0.67229330  0.30086446    -0.15700
C544        C  0.43685989  0.70352967  0.27902882     0.50400
N545        N  0.46509404  0.73011619  0.27529949    -0.90000
H546        H  0.39923254  0.73522971  0.24826811     0.17700
H547        H  0.41716267  0.62057040  0.31576915     0.17700
N548        N  0.35222213  0.62500338  0.28531944    -0.89000
H549        H  0.45581912  0.75494483  0.28509152     0.35100
H550        H  0.47047557  0.73307084  0.24732050     0.40200
H551        H  0.34746730  0.61900416  0.31291422     0.39800
H552        H  0.36151902  0.60143537  0.27273933     0.34700
C553        C  0.69707972  0.43951242  0.26288258    -0.27000
C554        C  0.67897474  0.43943505  0.29684107    -0.15100
C555        C  0.66689531  0.40557446  0.31079848     0.35500
C556        C  0.67490490  0.37333704  0.29237834    -0.26500
C557        C  0.69588577  0.37287042  0.26053769    -0.15700
C558        C  0.70544116  0.40663059  0.24447093     0.36600
N559        N  0.72515205  0.40751094  0.21071298    -0.90000
H560        H  0.70579310  0.46518058  0.25125181     0.17700
H561        H  0.66688643  0.34805190  0.30499668     0.17700
N562        N  0.64821706  0.40318819  0.34501950    -0.89000
H563        H  0.73067927  0.43430950  0.20293673     0.35100
H564        H  0.70851636  0.39628479  0.19024706     0.40200
H565        H  0.66301210  0.38690266  0.36289587     0.39800
H566        H  0.62333601  0.39043936  0.34019198     0.34700
C567        C  0.27057363  0.67425031  0.43158854    -0.27000
C568        C  0.30710503  0.66542698  0.43452334    -0.15100
C569        C  0.32784353  0.66392158  0.40218264     0.35500
C570        C  0.31247207  0.67278662  0.36824084    -0.26500
C571        C  0.27658199  0.68300949  0.36537493    -0.15700
C572        C  0.25515308  0.68288901  0.39718204     0.36600
N573        N  0.21831120  0.69332676  0.39487477    -0.90000
H574        H  0.25417636  0.67504234  0.45603333     0.17700
H575        H  0.32952535  0.67441861  0.34430931     0.17700
N576        N  0.36532816  0.65575394  0.40389779    -0.89000
H577        H  0.20250648  0.67187190  0.40485769     0.35100
H578        H  0.21475929  0.71565188  0.41216304     0.40200
H579        H  0.37978609  0.67783536  0.39321366     0.39800
H580        H  0.36976485  0.63329983  0.38699682     0.34700
C581        C  0.40788477  0.28886852  0.65752365    -0.27000
C582        C  0.43925654  0.27563060  0.67424162    -0.15100
C583        C  0.43601100  0.24386014  0.69565920     0.35500
C584        C  0.40172728  0.22923824  0.70394062    -0.26500
C585        C  0.37022387  0.24507455  0.69022580    -0.15700
C586        C  0.37388390  0.27397403  0.66493184     0.36600
N587        N  0.34306243  0.28992382  0.64802709    -0.90000
H588        H  0.40915670  0.31228455  0.63963299     0.17700
H589        H  0.39980780  0.20646502  0.72263514     0.17700
N590        N  0.46720022  0.22625051  0.70918278    -0.89000
H591        H  0.34598078  0.28828175  0.61953074     0.35100
H592        H  0.34263636  0.31737646  0.65537772     0.40200
H593        H  0.46689283  0.19983165  0.69861608     0.39800
H594        H  0.46522444  0.22433058  0.73769443     0.34700
C595        C  0.42318239  0.59844221  0.52792691    -0.27000
C596        C  0.39262793  0.59393920  0.50540807    -0.15100
C597        C  0.38911048  0.56244600  0.48343141     0.35500
C598        C  0.41635411  0.53668323  0.48374230    -0.26500
C599        C  0.44719400  0.54172125  0.50549041    -0.15700
C600        C  0.45064183  0.57292765  0.52807256     0.36600
N601        N  0.48139209  0.57967829  0.55141933    -0.90000
H602        H  0.42630048  0.62249240  0.54492993     0.17700
H603        H  0.41349581  0.51263193  0.46674687     0.17700
N604        N  0.35770094  0.55614635  0.46121196    -0.89000
H605        H  0.49411919  0.60342719  0.54222023     0.35100
H606        H  0.50018729  0.55907135  0.54953063     0.40200
H607        H  0.34584321  0.53157126  0.46936206     0.39800
H608        H  0.36581200  0.55337790  0.43392299     0.34700
C609        C  0.44901449  0.49679118  0.58944711    -0.27000
C610        C  0.44478785  0.48072582  0.55481967    -0.15100
C611        C  0.41219518  0.46220329  0.54584167     0.35500
C612        C  0.38440109  0.46099082  0.57168720    -0.26500
C613        C  0.38803580  0.47872960  0.60568156    -0.15700
C614        C  0.42095891  0.49619877  0.61477306     0.36600
N615        N  0.42598039  0.51355085  0.64974738    -0.90000
H616        H  0.47406334  0.51056855  0.59656511     0.17700
H617        H  0.35918389  0.44764251  0.56439162     0.17700
N618        N  0.40622926  0.44464779  0.51093847    -0.89000
H619        H  0.43229303  0.54091863  0.64517295     0.35100
H620        H  0.44796886  0.50174425  0.66284322     0.40200
H621        H  0.42847562  0.44733200  0.49383263     0.39800
H622        H  0.38501981  0.45774913  0.49780460     0.34700
C623        C  0.48194786  0.57562260  0.39480004    -0.27000
C624        C  0.49847504  0.60879843  0.40459353    -0.15100
C625        C  0.51670468  0.61170063  0.43861759     0.35500
C626        C  0.51890668  0.58133828  0.46160698    -0.26500
C627        C  0.50284597  0.54810481  0.45152133    -0.15700
C628        C  0.48375943  0.54528330  0.41781381     0.36600
N629        N  0.46627541  0.51219350  0.40580920    -0.90000
H630        H  0.46811399  0.57291398  0.36860899     0.17700
H631        H  0.53290414  0.58380476  0.48772197     0.17700
N632        N  0.53234337  0.64561248  0.45030804    -0.89000
H633        H  0.43880242  0.51721745  0.40338893     0.35100
H634        H  0.46890777  0.49147046  0.42505852     0.40200
H635        H  0.55974035  0.64172750  0.45508861     0.39800
H636        H  0.52059566  0.65284618  0.47522921     0.34700
C637        C  0.58894392  0.52100706  0.45382044    -0.27000
C638        C  0.56072881  0.49556407  0.44938520    -0.15100
C639        C  0.55930877  0.47426898  0.41730190     0.35500
C640        C  0.58616572  0.47811031  0.39064814    -0.26500
C641        C  0.61484714  0.50322894  0.39494225    -0.15700
C642        C  0.61591569  0.52503315  0.42700213     0.36600
N643        N  0.64464594  0.55069558  0.43297860    -0.90000
H644        H  0.59012017  0.53772599  0.47834508     0.17700
H645        H  0.58433755  0.46122403  0.36627230     0.17700
N646        N  0.53037355  0.44882604  0.41144889    -0.89000
H647        H  0.65757665  0.54406147  0.45760043     0.35100
H648        H  0.63349005  0.57637779  0.43608590     0.40200
H649        H  0.54150283  0.42328414  0.40736985     0.39800
H650        H  0.51712831  0.45593031  0.38714966     0.34700
C651        C  0.57947646  0.37399304  0.49775417    -0.27000
C652        C  0.61378426  0.38315065  0.51161721    -0.15100
C653        C  0.62153406  0.41968077  0.52126107     0.35500
C654        C  0.59477570  0.44579176  0.51736952    -0.26500
C655        C  0.56054448  0.43623771  0.50372243    -0.15700
C656        C  0.55313053  0.40012732  0.49328171     0.36600
N657        N  0.51899212  0.38992051  0.47763524    -0.90000
H658        H  0.57314434  0.34628647  0.48959591     0.17700
H659        H  0.60056759  0.47364179  0.52535520     0.17700
N660        N  0.65642614  0.43129694  0.53373866    -0.89000
H661        H  0.50817740  0.36879632  0.49337175     0.35100
H662        H  0.52345792  0.37928842  0.45145777     0.40200
H663        H  0.67523947  0.42424167  0.51388005     0.39800
H664        H  0.66236523  0.41776867  0.55817172     0.34700
C665        C  0.47973666  0.40092551  0.55359829    -0.27000
C666        C  0.50343518  0.43062106  0.55727419    -0.15100
C667        C  0.52638323  0.43275780  0.58805585     0.35500
C668        C  0.52617618  0.40462706  0.61402154    -0.26500
C669        C  0.50286700  0.37436268  0.61012742    -0.15700
C670        C  0.47943048  0.37271897  0.57937116     0.36600
N671        N  0.45580422  0.34214804  0.57356027    -0.90000
H672        H  0.46177642  0.39924948  0.53011272     0.17700
H673        H  0.54399485  0.40684230  0.63761632     0.17700
N674        N  0.54934459  0.46389590  0.59339842    -0.89000
H675        H  0.46183937  0.33057641  0.54812905     0.35100
H676        H  0.42947569  0.35156179  0.57228936     0.40200
H677        H  0.54266977  0.47592079  0.61842873     0.39800
H678        H  0.57580495  0.45499419  0.59544977     0.34700
C679        C  0.80694969  0.25349773  0.06777621    -0.27000
C680        C  0.81076330  0.29151671  0.06745390    -0.15100
C681        C  0.81351599  0.31000208  0.10134630     0.35500
C682        C  0.81294434  0.29069128  0.13445378    -0.26500
C683        C  0.80838668  0.25273011  0.13524502    -0.15700
C684        C  0.80527702  0.23402436  0.10108199     0.36600
N685        N  0.80025717  0.19547616  0.09909103    -0.90000
H686        H  0.80537392  0.23878317  0.04199904     0.17700
H687        H  0.81505657  0.30599822  0.15986544     0.17700
N688        N  0.81625024  0.34881172  0.10231740    -0.89000
H689        H  0.77606396  0.18853433  0.11185973     0.35100
H690        H  0.82150839  0.18318964  0.11297146     0.40200
H691        H  0.84071507  0.35592468  0.11471545     0.39800
H692        H  0.79545614  0.35866550  0.11853188     0.34700
C693        C  0.08176427  0.30714276  0.84291870    -0.27000
C694        C  0.05211312  0.29021015  0.82532184    -0.15100
C695        C  0.05833808  0.25786880  0.80524575     0.35500
C696        C  0.09396828  0.24717211  0.79839268    -0.26500
C697        C  0.12348952  0.26773111  0.81180687    -0.15700
C698        C  0.11682933  0.29650913  0.83616854     0.36600
N699        N  0.14546912  0.31736025  0.85236804    -0.90000
H700        H  0.07825575  0.33093304  0.85999596     0.17700
H701        H  0.09853628  0.22429471  0.78035878     0.17700
N702        N  0.02941809  0.23503188  0.79234644    -0.89000
H703        H  0.15923150  0.33046579  0.83126592     0.35100
H704        H  0.16282757  0.29960089  0.86574289     0.40200
H705        H  0.01365675  0.22772391  0.81487496     0.39800
H706        H  0.01352875  0.24957016  0.77414555     0.34700
C707        C  0.83524728  0.37382197  0.23388147    -0.27000
C708        C  0.80975388  0.37414747  0.26194844    -0.15100
C709        C  0.79404201  0.40764713  0.27119830     0.35500
C710        C  0.80050683  0.43853931  0.24881829    -0.26500
C711        C  0.82361598  0.43715298  0.21826788    -0.15700
C712        C  0.84269296  0.40459439  0.21259467     0.36600
N713        N  0.86951310  0.40192391  0.18487588    -0.90000
H714        H  0.84879846  0.34884393  0.22723109     0.17700
H715        H  0.78670583  0.46348845  0.25484373     0.17700
N716        N  0.77065368  0.40999363  0.30228375    -0.89000
H717        H  0.86229480  0.38059027  0.16730825     0.35100
H718        H  0.89375530  0.39523771  0.19769412     0.40200
H719        H  0.76150599  0.43649654  0.30538307     0.39800
H720        H  0.78600430  0.40459728  0.32574351     0.34700
C721        C  0.07927358  0.66693348  0.21349876    -0.27000
C722        C  0.06854658  0.68144284  0.17953282    -0.15100
C723        C  0.09419902  0.69962987  0.15781139     0.35500
C724        C  0.12905816  0.70515882  0.17125906    -0.26500
C725        C  0.13945171  0.69351446  0.20662519    -0.15700
C726        C  0.11450564  0.67295113  0.22729384     0.36600
N727        N  0.12408420  0.65980697  0.26293226    -0.90000
H728        H  0.06002946  0.65169867  0.22975381     0.17700
H729        H  0.14741691  0.72108883  0.15468995     0.17700
N730        N  0.08519041  0.71391935  0.12239652    -0.89000
H731        H  0.10630137  0.67070898  0.28195427     0.35100
H732        H  0.12043120  0.63161101  0.26284762     0.40200
H733        H  0.06411868  0.73207325  0.12551132     0.39800
H734        H  0.07633836  0.69249423  0.10557714     0.34700
C735        C  0.23573123  0.43339565  0.80802479    -0.27000
C736        C  0.20750696  0.43139230  0.83365515    -0.15100
C737        C  0.20272449  0.39811316  0.85273722     0.35500
C738        C  0.22140505  0.36696493  0.84128791    -0.26500
C739        C  0.24511671  0.36771601  0.81141316    -0.15700
C740        C  0.25515011  0.40244691  0.79761740     0.36600
N741        N  0.28564658  0.40765140  0.77433077    -0.90000
H742        H  0.24254038  0.45914259  0.79537241     0.17700
H743        H  0.21631243  0.34139636  0.85498459     0.17700
N744        N  0.17852456  0.39559706  0.88324793    -0.89000
H745        H  0.28173541  0.39383213  0.74965394     0.35100
H746        H  0.30811299  0.39700695  0.78762647     0.40200
H747        H  0.18884779  0.41244515  0.90407355     0.39800
H748        H  0.17809683  0.36936871  0.89410448     0.34700
C749        C  0.21103839  0.72677476  0.10020253    -0.27000
C750        C  0.21474752  0.69979642  0.12722687    -0.15100
C751        C  0.20125492  0.66465202  0.12048899     0.35500
C752        C  0.18342987  0.65748409  0.08694028    -0.26500
C753        C  0.17892649  0.68493427  0.06034782    -0.15700
C754        C  0.19295288  0.71988036  0.06728858     0.36600
N755        N  0.18726600  0.74901763  0.04200233    -0.90000
H756        H  0.22101340  0.75415627  0.10528589     0.17700
H757        H  0.17261488  0.63048142  0.08175973     0.17700
N758        N  0.20370888  0.63723203  0.14832827    -0.89000
H759        H  0.21235591  0.75969630  0.03456347     0.35100
H760        H  0.17329331  0.76938256  0.05563096     0.40200
H761        H  0.23088194  0.63126907  0.15178946     0.39800
H762        H  0.19095918  0.61323598  0.13951464     0.34700
C763        C  0.03852634  0.50546568  0.90528275    -0.27000
C764        C  0.04197775  0.49138864  0.94078042    -0.15100
C765        C  0.07415758  0.47378054  0.95062262     0.35500
C766        C  0.10239517  0.47166219  0.92528893    -0.26500
C767        C  0.09940957  0.48722393  0.89023117    -0.15700
C768        C  0.06676247  0.50366692  0.88010917     0.36600
N769        N  0.06195386  0.51829321  0.84400945    -0.90000
H770        H  0.01384678  0.51827106  0.89701446     0.17700
H771        H  0.12721411  0.45891722  0.93351082     0.17700
N772        N  0.07894672  0.45808604  0.98622445    -0.89000
H773        H  0.05592807  0.54579684  0.84664563     0.35100
H774        H  0.03984435  0.50508869  0.83176793     0.40200
H775        H  0.05862403  0.43871481  0.99028623     0.39800
H776        H  0.07619931  0.47843801  0.00596632     0.34700
C777        C  0.06318779  0.60866381  0.96686326    -0.27000
C778        C  0.08866639  0.61041009  0.99543811    -0.15100
C779        C  0.08887544  0.58282974  0.02229578     0.35500
C780        C  0.06383107  0.55425397  0.01984824    -0.26500
C781        C  0.03798853  0.55301601  0.99167043    -0.15700
C782        C  0.03738358  0.58085403  0.96500729     0.36600
N783        N  0.01099285  0.58218337  0.93598607    -0.90000
H784        H  0.06254383  0.62970753  0.94613616     0.17700
H785        H  0.06414036  0.53317467  0.04053519     0.17700
N786        N  0.11459100  0.58328184  0.05178777    -0.89000
H787        H  0.99743844  0.60668328  0.93835783     0.35100
H788        H  0.99149358  0.56175637  0.93860980     0.40200
H789        H  0.12922979  0.55933314  0.05053404     0.39800
H790        H  0.10057393  0.58341356  0.07657762     0.34700
C791        C  0.99951450  0.54916473  0.08055788    -0.27000
C792        C  0.98264971  0.55517169  0.04661878    -0.15100
C793        C  0.96726696  0.58935806  0.03941568     0.35500
C794        C  0.96996079  0.61682436  0.06609345    -0.26500
C795        C  0.98804304  0.61118586  0.09949901    -0.15700
C796        C  0.00224465  0.57670943  0.10715646     0.36600
N797        N  0.01921510  0.56975539  0.14198425    -0.90000
H798        H  0.01111385  0.52292566  0.08603138     0.17700
H799        H  0.95882852  0.64318669  0.06013345     0.17700
N800        N  0.94885342  0.59727469  0.00560405    -0.89000
H801        H  0.02828824  0.54306947  0.14315062     0.35100
H802        H  0.99961987  0.57209995  0.16224615     0.40200
H803        H  0.94855423  0.57512102  0.98771324     0.39800
H804        H  0.96311338  0.61818825  0.99262780     0.34700
C805        C  0.93861676  0.48286843  0.08366600    -0.27000
C806        C  0.92876529  0.49761159  0.04972723    -0.15100
C807        C  0.89366290  0.51112990  0.04494369     0.35500
C808        C  0.86946246  0.50933642  0.07434825    -0.26500
C809        C  0.87921681  0.49419455  0.10838711    -0.15700
C810        C  0.91459604  0.48126876  0.11292095     0.36600
N811        N  0.92763060  0.46784021  0.14725992    -0.90000
H812        H  0.96551664  0.47267823  0.08757126     0.17700
H813        H  0.84272843  0.51999789  0.07053858     0.17700
N814        N  0.88183525  0.52739350  0.01117492    -0.89000
H815        H  0.91348586  0.44406985  0.15347395     0.35100
H816        H  0.92322402  0.48727106  0.16762886     0.40200
H817        H  0.90195220  0.52749685  0.99139151     0.39800
H818        H  0.86072003  0.51134770  0.00067350     0.34700
C819        C  0.89793322  0.44388330  0.97279552    -0.27000
C820        C  0.92836542  0.44070811  0.99520141    -0.15100
C821        C  0.93115145  0.41110157  0.01961592     0.35500
C822        C  0.90273101  0.38592451  0.02170288    -0.26500
C823        C  0.87206617  0.38891246  0.99926368    -0.15700
C824        C  0.86964767  0.41840168  0.97451689     0.36600
N825        N  0.83836052  0.42280090  0.95164743    -0.90000
H826        H  0.89604086  0.46677601  0.95430977     0.17700
H827        H  0.90515239  0.36328161  0.04044758     0.17700
N828        N  0.96223006  0.40564915  0.04256735    -0.89000
H829        H  0.84131344  0.44547621  0.93465831     0.35100
H830        H  0.81672096  0.42801673  0.96891934     0.40200
H831        H  0.98203968  0.42550594  0.03830700     0.39800
H832        H  0.97350690  0.38099470  0.03484222     0.34700
C833        C  0.99709038  0.40574718  0.94711745    -0.27000
C834        C  0.98233471  0.43938952  0.93862977    -0.15100
C835        C  0.96599723  0.44466952  0.90414016     0.35500
C836        C  0.96582600  0.41656879  0.87808646    -0.26500
C837        C  0.98183691  0.38316906  0.88597501    -0.15700
C838        C  0.99701429  0.37762827  0.92115734     0.36600
N839        N  0.01178871  0.34329450  0.93093504    -0.90000
H840        H  0.00859605  0.40121407  0.97408418     0.17700
H841        H  0.95388294  0.42126544  0.85131446     0.17700
N842        N  0.94947060  0.47848177  0.89558243    -0.89000
H843        H  0.99797818  0.33347113  0.95385088     0.35100
H844        H  0.03866667  0.34756297  0.93854462     0.40200
H845        H  0.92239880  0.47319255  0.88950462     0.39800
H846        H  0.96140473  0.48879617  0.87181189     0.34700
C847        C  0.31919804  0.78004766  0.06832819    -0.27000
C848        C  0.32334245  0.81706415  0.06113133    -0.15100
C849        C  0.31092708  0.84261136  0.08719125     0.35500
C850        C  0.29505238  0.83049177  0.11976177    -0.26500
C851        C  0.29222070  0.79339715  0.12739302    -0.15700
C852        C  0.30402672  0.76793685  0.10096820     0.36600
N853        N  0.30084016  0.72955593  0.10698417    -0.90000
H854        H  0.32851264  0.76013025  0.04874995     0.17700
H855        H  0.28602692  0.85019410  0.13968319     0.17700
N856        N  0.31384028  0.88090808  0.08143275    -0.89000
H857        H  0.32658730  0.71864343  0.10636980     0.35100
H858        H  0.28594304  0.71809568  0.08530222     0.40200
H859        H  0.30232540  0.88707126  0.05596677     0.39800
H860        H  0.34103100  0.88817827  0.08139918     0.34700
C861        C  0.42103244  0.83693529  0.20666674    -0.27000
C862        C  0.43341240  0.81919638  0.17502981    -0.15100
C863        C  0.41069045  0.79388681  0.15708772     0.35500
C864        C  0.37726141  0.78515921  0.17199647    -0.26500
C865        C  0.36525700  0.80096419  0.20500669    -0.15700
C866        C  0.38715562  0.82795665  0.22184926     0.36600
N867        N  0.37583707  0.84536816  0.25487533    -0.90000
H868        H  0.43800478  0.85722441  0.22005775     0.17700
H869        H  0.36110823  0.76460575  0.15804914     0.17700
N870        N  0.42111665  0.77628548  0.12375633    -0.89000
H871        H  0.37529402  0.87331517  0.25004005     0.35100
H872        H  0.39513345  0.84065269  0.27525118     0.40200
H873        H  0.44482953  0.76224049  0.12875462     0.39800
H874        H  0.42627628  0.79620853  0.10400340     0.34700
C875        C  0.37655264  0.23739972  0.83923082    -0.27000
C876        C  0.37353422  0.26262924  0.81062569    -0.15100
C877        C  0.40555702  0.27478440  0.79362542     0.35500
C878        C  0.43850977  0.25742895  0.80128704    -0.26500
C879        C  0.44048880  0.22857427  0.82660381    -0.15700
C880        C  0.40925120  0.22078871  0.84767250     0.36600
N881        N  0.40992573  0.19537856  0.87739098    -0.90000
H882        H  0.35283187  0.22871416  0.85410596     0.17700
H883        H  0.46238651  0.26618189  0.78678833     0.17700
N884        N  0.40476915  0.30469171  0.76863620    -0.89000
H885        H  0.39106849  0.17472399  0.87190375     0.35100
H886        H  0.40212806  0.20882050  0.90130615     0.40200
H887        H  0.41494359  0.29620565  0.74351595     0.39800
H888        H  0.42201803  0.32501903  0.77890482     0.34700
C889        C  0.25614984  0.07101809  0.82004852    -0.27000
C890        C  0.29375663  0.07127502  0.82450924    -0.15100
C891        C  0.31219358  0.10517195  0.82563802     0.35500
C892        C  0.29296925  0.13749388  0.82239590    -0.26500
C893        C  0.25565544  0.13749896  0.81603295    -0.15700
C894        C  0.23705653  0.10355756  0.81528479     0.36600
N895        N  0.19900494  0.10118219  0.80955549    -0.90000
H896        H  0.24153769  0.04535560  0.81983171     0.17700
H897        H  0.30791184  0.16297258  0.82247878     0.17700
N898        N  0.35075847  0.10678288  0.82864031    -0.89000
H899        H  0.19293609  0.11112481  0.78343420     0.35100
H900        H  0.18662622  0.11743582  0.82918057     0.40200
H901        H  0.36113919  0.09484235  0.80497399     0.39800
H902        H  0.36015204  0.13366363  0.82886569     0.34700
C903        C  0.67028613  0.19718006  0.09300859    -0.27000
C904        C  0.68559745  0.21166649  0.06097377    -0.15100
C905        C  0.70505157  0.24471341  0.06379857     0.35500
C906        C  0.71331848  0.25963334  0.09857157    -0.26500
C907        C  0.70167548  0.24235393  0.13073599    -0.15700
C908        C  0.67798707  0.21226516  0.12756097     0.36600
N909        N  0.66311266  0.19569814  0.15964883    -0.90000
H910        H  0.65382210  0.17268809  0.09173676     0.17700
H911        H  0.73093395  0.28328293  0.10035046     0.17700
N912        N  0.71627127  0.26338310  0.03154125    -0.89000
H913        H  0.67104045  0.16860043  0.16009679     0.35100
H914        H  0.63512163  0.19604786  0.15716206     0.40200
H915        H  0.74415286  0.26602961  0.03258636     0.39800
H916        H  0.70560171  0.28941813  0.03249254     0.34700
C917        C  0.65486808  0.07680777  0.21055059    -0.27000
C918        C  0.68237791  0.05192485  0.20297409    -0.15100
C919        C  0.71798060  0.06135797  0.21242265     0.35500
C920        C  0.72578955  0.09615557  0.22568465    -0.26500
C921        C  0.69900613  0.12245044  0.22958564    -0.15700
C922        C  0.66280215  0.11172556  0.22445164     0.36600
N923        N  0.63386774  0.13561755  0.23222631    -0.90000
H924        H  0.62714412  0.06950622  0.20444305     0.17700
H925        H  0.75362851  0.10317980  0.23123118     0.17700
N926        N  0.74679116  0.03680505  0.20616147    -0.89000
H927        H  0.63710766  0.15920509  0.21675467     0.35100
H928        H  0.63538992  0.14270716  0.26002543     0.40200
H929        H  0.76020534  0.03283960  0.23113267     0.39800
H930        H  0.76487324  0.04909146  0.18800364     0.34700
C931        C  0.45395102  0.98844971  0.90192969    -0.27000
C932        C  0.45229528  0.00991308  0.93368846    -0.15100
C933        C  0.42135553  0.03079597  0.94009266     0.35500
C934        C  0.39339201  0.03030997  0.91403906    -0.26500
C935        C  0.39466496  0.00824948  0.88252603    -0.15700
C936        C  0.42539929  0.98710150  0.87658479     0.36600
N937        N  0.42810771  0.96465524  0.84457247    -0.90000
H938        H  0.47755640  0.97245196  0.89683150     0.17700
H939        H  0.36989379  0.04649306  0.91918213     0.17700
N940        N  0.41704868  0.05230255  0.97276482    -0.89000
H941        H  0.43172634  0.93790069  0.85319383     0.35100
H942        H  0.45098763  0.97285678  0.83011839     0.40200
H943        H  0.43885967  0.04996266  0.99070403     0.39800
H944        H  0.39476915  0.04186562  0.98677327     0.34700
C945        C  0.43788753  0.88975532  0.96960795    -0.27000
C946        C  0.40773245  0.89388812  0.99195681    -0.15100
C947        C  0.40247895  0.92687745  0.01058278     0.35500
C948        C  0.42755967  0.95511347  0.00657198    -0.26500
C949        C  0.45802219  0.95059408  0.98484986    -0.15700
C950        C  0.46324828  0.91763576  0.96589237     0.36600
N951        N  0.49343197  0.91160377  0.94236639    -0.90000
H952        H  0.44200510  0.86446139  0.95506164     0.17700
H953        H  0.42369630  0.98046229  0.02109456     0.17700
N954        N  0.37148836  0.93216447  0.03286866    -0.89000
H955        H  0.50834031  0.89052107  0.95365922     0.35100
H956        H  0.51043228  0.93432088  0.94099865     0.40200
H957        H  0.35740897  0.95419728  0.02233591     0.39800
H958        H  0.38032490  0.93903593  0.05936484     0.34700
C959        C  0.59436063  0.06153435  0.96489138    -0.27000
C960        C  0.56491786  0.06516270  0.98813005    -0.15100
C961        C  0.56319896  0.09530631  0.01205210     0.35500
C962        C  0.59178840  0.12044964  0.01290251    -0.26500
C963        C  0.62212501  0.11633389  0.99048587    -0.15700
C964        C  0.62337279  0.08620561  0.96626439     0.36600
N965        N  0.65434066  0.07996813  0.94389317    -0.90000
H966        H  0.59514526  0.03863167  0.94623077     0.17700
H967        H  0.59012804  0.14344232  0.03139574     0.17700
N968        N  0.53321579  0.10119065  0.03593122    -0.89000
H969        H  0.65033960  0.05717585  0.92708723     0.35100
H970        H  0.67566909  0.07385723  0.96155867     0.40200
H971        H  0.51349986  0.08092986  0.03299220     0.39800
H972        H  0.52129409  0.12547016  0.02796206     0.34700
C973        C  0.51900866  0.09348284  0.87539437    -0.27000
C974        C  0.50257333  0.12606974  0.88551143    -0.15100
C975        C  0.48771952  0.12930966  0.92097929     0.35500
C976        C  0.48994051  0.09993592  0.94549312    -0.26500
C977        C  0.50646286  0.06759732  0.93510841    -0.15700
C978        C  0.52081907  0.06427453  0.89978209     0.36600
N979        N  0.53743679  0.03124653  0.88872282    -0.90000
H980        H  0.53037403  0.09053398  0.84824854     0.17700
H981        H  0.47903070  0.10231150  0.97286464     0.17700
N982        N  0.47127821  0.16251079  0.93228642    -0.89000
H983        H  0.56389481  0.03737423  0.88122741     0.35100
H984        H  0.52382949  0.02136431  0.86544605     0.40200
H985        H  0.49132284  0.18270495  0.93303329     0.39800
H986        H  0.46145329  0.16018819  0.95902478     0.34700
C987        C  0.53206770  0.89092926  0.06353799    -0.27000
C988        C  0.50763865  0.89354354  0.09262097    -0.15100
C989        C  0.48627473  0.92476393  0.09525290     0.35500
C990        C  0.48989712  0.95250446  0.06923476    -0.26500
C991        C  0.51345925  0.94936496  0.03960541    -0.15700
C992        C  0.53479266  0.91800316  0.03666393     0.36600
N993        N  0.55835746  0.91185047  0.00631111    -0.90000
H994        H  0.54832338  0.86694678  0.06078378     0.17700
H995        H  0.47351381  0.97643536  0.07169216     0.17700
N996        N  0.46093513  0.92864627  0.12435039    -0.89000
H997        H  0.58462956  0.91137708  0.01660488     0.35100
H998        H  0.55713911  0.93272554  0.98714157     0.40200
H999        H  0.43546439  0.93174401  0.11255721     0.39800
H1000       H  0.46745030  0.95239742  0.13887242     0.34700
C1001       C  0.62562036  0.98614667  0.06446393    -0.27000
C1002       C  0.61666094  0.99756639  0.09994816    -0.15100
C1003       C  0.58332929  0.01413911  0.10584403     0.35500
C1004       C  0.55919369  0.01801411  0.07648779    -0.26500
C1005       C  0.56792515  0.00613787  0.04111479    -0.15700
C1006       C  0.60199657  0.99082616  0.03479164     0.36600
N1007       N  0.61339195  0.97921674  0.99905639    -0.90000
H1008       H  0.65151019  0.97405379  0.05958725     0.17700
H1009       H  0.53308902  0.02959983  0.08147703     0.17700
N1010       N  0.57340977  0.02601383  0.14181615    -0.89000
H1011       H  0.63573253  0.99515355  0.99187728     0.35100
H1012       H  0.59379965  0.98370426  0.97906247     0.40200
H1013       H  0.54967316  0.01237687  0.14907939     0.39800
H1014       H  0.56806473  0.05375834  0.14052243     0.34700
C1015       C  0.74454093  0.89820784  0.28466716    -0.27000
C1016       C  0.75114927  0.86677123  0.30557937    -0.15100
C1017       C  0.77243769  0.87062070  0.33765874     0.35500
C1018       C  0.78941713  0.90399282  0.34600761    -0.26500
C1019       C  0.78596278  0.93461158  0.32318935    -0.15700
C1020       C  0.76138129  0.93198231  0.29342769     0.36600
N1021       N  0.75416513  0.96312985  0.27137122    -0.90000
H1022       H  0.72774553  0.89626210  0.26028939     0.17700
H1023       H  0.80649102  0.90529873  0.37016572     0.17700
N1024       N  0.77795829  0.84027709  0.36147393    -0.89000
H1025       H  0.72645215  0.96731282  0.27129840     0.35100
H1026       H  0.76200094  0.95749649  0.24456539     0.40200
H1027       H  0.76919652  0.84734309  0.38772272     0.39800
H1028       H  0.80554865  0.83553144  0.36303519     0.34700
C1029       C  0.74440815  0.92646539  0.17704472    -0.27000
C1030       C  0.70866311  0.92575033  0.16420024    -0.15100
C1031       C  0.69186026  0.89182882  0.15754107     0.35500
C1032       C  0.71004603  0.85975824  0.16564746    -0.26500
C1033       C  0.74472413  0.86015228  0.18128827    -0.15700
C1034       C  0.76255524  0.89411570  0.18591628     0.36600
N1035       N  0.79837439  0.89580828  0.20086269    -0.90000
H1036       H  0.75795198  0.95244299  0.18086524     0.17700
H1037       H  0.69549105  0.83439404  0.16265941     0.17700
N1038       N  0.65535767  0.88970548  0.14481581    -0.89000
H1039       H  0.80741711  0.92274584  0.20304174     0.35100
H1040       H  0.81522665  0.88302946  0.18216383     0.40200
H1041       H  0.64032823  0.87470389  0.16379520     0.39800
H1042       H  0.65478825  0.87580602  0.11976879     0.34700
C1043       C  0.90823836  0.76242259  0.19997198    -0.27000
C1044       C  0.87587323  0.75413489  0.18122716    -0.15100
C1045       C  0.87758667  0.73211837  0.14946176     0.35500
C1046       C  0.90980947  0.71525653  0.14012153    -0.26500
C1047       C  0.94130423  0.71985215  0.16141749    -0.15700
C1048       C  0.94099554  0.74592427  0.19019369     0.36600
N1049       N  0.97329675  0.75451777  0.21048203    -0.90000
H1050       H  0.90764169  0.77996379  0.22387760     0.17700
H1051       H  0.90949592  0.69711346  0.11665066     0.17700
N1052       N  0.84622133  0.72543776  0.12723525    -0.89000
H1053       H  0.96825270  0.77378647  0.23084568     0.35100
H1054       H  0.99118724  0.76705232  0.19231378     0.40200
H1055       H  0.84110681  0.69744708  0.12666126     0.39800
H1056       H  0.85186797  0.73382947  0.10045182     0.34700
C1057       C  0.87631709  0.77074710  0.33702109    -0.27000
C1058       C  0.87600196  0.74513282  0.30839531    -0.15100
C1059       C  0.90934294  0.73454176  0.29370598     0.35500
C1060       C  0.94122214  0.75353269  0.30422218    -0.26500
C1061       C  0.94061631  0.78262730  0.32943633    -0.15700
C1062       C  0.90769937  0.78965277  0.34738459     0.36600
N1063       N  0.90512039  0.81723742  0.37502898    -0.90000
H1064       H  0.85137425  0.77844012  0.34985076     0.17700
H1065       H  0.96642834  0.74630156  0.29174434     0.17700
N1066       N  0.91064219  0.70563411  0.26721516    -0.89000
H1067       H  0.89529646  0.80520731  0.39899884     0.35100
H1068       H  0.88651995  0.83637062  0.36616138     0.40200
H1069       H  0.90196351  0.68187037  0.28027768     0.39800
H1070       H  0.93710603  0.70126214  0.25909982     0.34700
C1071       C  0.75869484  0.60244713  0.29342670    -0.27000
C1072       C  0.74791864  0.63544148  0.30923535    -0.15100
C1073       C  0.72348470  0.63378828  0.33876973     0.35500
C1074       C  0.70614084  0.60046517  0.34747594    -0.26500
C1075       C  0.71402123  0.56798871  0.32869912    -0.15700
C1076       C  0.74266123  0.56899416  0.30335882     0.36600
N1077       N  0.75551086  0.53620510  0.28726817    -0.90000
H1078       H  0.77848608  0.60257799  0.27175517     0.17700
H1079       H  0.68572016  0.60021795  0.36850581     0.17700
N1080       N  0.71596025  0.66601004  0.35947727    -0.89000
H1081       H  0.78290889  0.53427726  0.29333995     0.35100
H1082       H  0.75257337  0.53800311  0.25882372     0.40200
H1083       H  0.73989022  0.67450839  0.37227522     0.39800
H1084       H  0.69777837  0.66020429  0.38050045     0.34700
C1085       C  0.79249878  0.62918905  0.17885316    -0.27000
C1086       C  0.75633373  0.63030187  0.18957623    -0.15100
C1087       C  0.73761111  0.59684092  0.19467386     0.35500
C1088       C  0.75528339  0.56374068  0.18863620    -0.26500
C1089       C  0.79169877  0.56301561  0.17859772    -0.15700
C1090       C  0.81027829  0.59653897  0.17377959     0.36600
N1091       N  0.84783938  0.59864984  0.16544037    -0.90000
H1092       H  0.80797246  0.65414119  0.17571709     0.17700
H1093       H  0.74050840  0.53841110  0.19205006     0.17700
N1094       N  0.70081168  0.59548939  0.20579126    -0.89000
H1095       H  0.85200666  0.58864812  0.13897928     0.35100
H1096       H  0.86203581  0.58319610  0.18454276     0.40200
H1097       H  0.68575693  0.61089520  0.18735692     0.39800
H1098       H  0.69889350  0.60686725  0.23200085     0.34700
C1099       C  0.59913931  0.75347600  0.19872039    -0.27000
C1100       C  0.63036044  0.76252752  0.17927615    -0.15100
C1101       C  0.62676812  0.78078534  0.14544960     0.35500
C1102       C  0.59315263  0.79469969  0.13520003    -0.26500
C1103       C  0.56259901  0.79049344  0.15769817    -0.15700
C1104       C  0.56555929  0.76726127  0.18867794     0.36600
N1105       N  0.53575116  0.75851474  0.21180728    -0.90000
H1106       H  0.60133319  0.73812320  0.22397021     0.17700
H1107       H  0.59141652  0.81016013  0.10999236     0.17700
N1108       N  0.65635987  0.78497235  0.12063736    -0.89000
H1109       H  0.51561922  0.74599050  0.19586148     0.35100
H1110       H  0.52617870  0.78234105  0.22358016     0.40200
H1111       H  0.67983079  0.77415381  0.13174421     0.39800
H1112       H  0.66092038  0.81259268  0.11620382     0.34700
C1113       C  0.63183803  0.69322023  0.33021626    -0.27000
C1114       C  0.63464468  0.72647870  0.31195217    -0.15100
C1115       C  0.60453778  0.74928142  0.31075877     0.35500
C1116       C  0.57106983  0.73595045  0.32373857    -0.26500
C1117       C  0.56785565  0.70096883  0.33905836    -0.15700
C1118       C  0.59924848  0.68043375  0.34406757     0.36600
N1119       N  0.59786225  0.64500860  0.36027403    -0.90000
H1120       H  0.65439680  0.67515151  0.33048810     0.17700
H1121       H  0.54731082  0.75232938  0.32082341     0.17700
N1122       N  0.60767914  0.78513270  0.29552705    -0.89000
H1123       H  0.61556798  0.64487796  0.38271353     0.35100
H1124       H  0.60690727  0.62622331  0.34098762     0.40200
H1125       H  0.61437682  0.78286714  0.26790193     0.39800
H1126       H  0.58292556  0.79815495  0.29641696     0.34700
C1127       C  0.89842537  0.29309869  0.72634587    -0.27000
C1128       C  0.86627164  0.30988101  0.73637675    -0.15100
C1129       C  0.86841697  0.34012736  0.76023800     0.35500
C1130       C  0.90056387  0.34731467  0.77967828    -0.26500
C1131       C  0.93141995  0.32627930  0.77425097    -0.15700
C1132       C  0.93102074  0.30179196  0.74442980     0.36600
N1133       N  0.96340553  0.28565245  0.73230155    -0.90000
H1134       H  0.89797393  0.27133148  0.70625731     0.17700
H1135       H  0.90077874  0.36852319  0.80032424     0.17700
N1136       N  0.83751928  0.36224588  0.76613704    -0.89000
H1137       H  0.96712638  0.29341076  0.70499488     0.35100
H1138       H  0.95971898  0.25755053  0.73263740     0.40200
H1139       H  0.83105816  0.37434151  0.74104620     0.39800
H1140       H  0.84366169  0.38343150  0.78440906     0.34700
C1141       C  0.86707587  0.15351177  0.73552177    -0.27000
C1142       C  0.86720283  0.18380483  0.75891672    -0.15100
C1143       C  0.90104755  0.19935608  0.76896935     0.35500
C1144       C  0.93222913  0.18862840  0.75051037    -0.26500
C1145       C  0.93066788  0.16332349  0.72148524    -0.15700
C1146       C  0.89776374  0.14347128  0.71632927     0.36600
N1147       N  0.89367538  0.11372128  0.69113176    -0.90000
H1148       H  0.84207330  0.13923978  0.72939133     0.17700
H1149       H  0.95762878  0.20140790  0.75795901     0.17700
N1150       N  0.90488041  0.22590489  0.79762956    -0.89000
H1151       H  0.91282288  0.09413895  0.69725307     0.35100
H1152       H  0.89650022  0.12307512  0.66423822     0.40200
H1153       H  0.89256391  0.21574136  0.82126437     0.39800
H1154       H  0.89242390  0.24984631  0.78986032     0.34700
C1155       C  0.77216912  0.20743835  0.89846462    -0.27000
C1156       C  0.76242035  0.18643306  0.86744170    -0.15100
C1157       C  0.74153145  0.15456235  0.87318813     0.35500
C1158       C  0.72511118  0.14897854  0.90722962    -0.26500
C1159       C  0.72969008  0.17378775  0.93661190    -0.15700
C1160       C  0.75660227  0.20117352  0.93287076     0.36600
N1161       N  0.76846259  0.22351206  0.96288715    -0.90000
H1162       H  0.79008946  0.23071336  0.89559356     0.17700
H1163       H  0.70738333  0.12558003  0.90994914     0.17700
N1164       N  0.73665719  0.12718183  0.84545471    -0.89000
H1165       H  0.77675135  0.20673987  0.98436966     0.35100
H1166       H  0.74713018  0.23915631  0.97147718     0.40200
H1167       H  0.76193634  0.11969183  0.83600188     0.39800
H1168       H  0.72168566  0.13717532  0.82354762     0.34700
C1169       C  0.72892351  0.30226365  0.89580440    -0.27000
C1170       C  0.75017147  0.30566876  0.86415189    -0.15100
C1171       C  0.78656835  0.31629082  0.86832621     0.35500
C1172       C  0.80124726  0.32140436  0.90338948    -0.26500
C1173       C  0.78051588  0.31713964  0.93516980    -0.15700
C1174       C  0.74356236  0.30890942  0.93114386     0.36600
N1175       N  0.72051370  0.30871886  0.96235188    -0.90000
H1176       H  0.70095986  0.29400043  0.89311564     0.17700
H1177       H  0.82956171  0.32848484  0.90565002     0.17700
N1178       N  0.80950892  0.32024532  0.83714226    -0.89000
H1179       H  0.70607752  0.28416416  0.96223150     0.35100
H1180       H  0.70183504  0.32931321  0.95872421     0.40200
H1181       H  0.82045736  0.34653829  0.83774611     0.39800
H1182       H  0.83060899  0.30201768  0.83984603     0.34700
C1183       C  0.59834976  0.18459099  0.80842090    -0.27000
C1184       C  0.56610163  0.19161187  0.78968084    -0.15100
C1185       C  0.56768977  0.19765704  0.75150977     0.35500
C1186       C  0.60112971  0.19823958  0.73334184    -0.26500
C1187       C  0.63340121  0.19148125  0.75230351    -0.15700
C1188       C  0.63147504  0.18413365  0.79042052     0.36600
N1189       N  0.66323193  0.17783797  0.81173224    -0.90000
H1190       H  0.59801348  0.17946187  0.83773343     0.17700
H1191       H  0.60189190  0.20461926  0.70431476     0.17700
N1192       N  0.53554038  0.20237249  0.73074699    -0.89000
H1193       H  0.66004093  0.15276171  0.82477807     0.35100
H1194       H  0.66524165  0.19785558  0.83210360     0.40200
H1195       H  0.53396119  0.18165872  0.71108937     0.39800
H1196       H  0.53798945  0.22699882  0.71673210     0.34700
C1197       C  0.60260161  0.29280568  0.76190799    -0.27000
C1198       C  0.63498646  0.30120571  0.74364486    -0.15100
C1199       C  0.63275357  0.31593242  0.70782752     0.35500
C1200       C  0.59931878  0.32004103  0.69067514    -0.26500
C1201       C  0.56707223  0.31040325  0.70813016    -0.15700
C1202       C  0.56879457  0.29805756  0.74474723     0.36600
N1203       N  0.53644975  0.29182426  0.76490161    -0.90000
H1204       H  0.60350662  0.28148135  0.78933187     0.17700
H1205       H  0.59888156  0.33012730  0.66273586     0.17700
N1206       N  0.66443444  0.32516009  0.68758987    -0.89000
H1207       H  0.53700102  0.30900259  0.78781127     0.35100
H1208       H  0.53654690  0.26520104  0.77449440     0.40200
H1209       H  0.66294526  0.35245846  0.68003599     0.39800
H1210       H  0.66461692  0.30949989  0.66358689     0.34700
C1211       C  0.76386905  0.28300370  0.59482151    -0.27000
C1212       C  0.75973376  0.30395144  0.62685439    -0.15100
C1213       C  0.74152234  0.33730204  0.62366501     0.35500
C1214       C  0.72182359  0.34473564  0.59167729    -0.26500
C1215       C  0.72105956  0.32057349  0.56163046    -0.15700
C1216       C  0.74557805  0.29153168  0.56194985     0.36600
N1217       N  0.75139726  0.27033555  0.52942859    -0.90000
H1218       H  0.77966301  0.25858601  0.59590521     0.17700
H1219       H  0.70594715  0.36910854  0.59105577     0.17700
N1220       N  0.74278510  0.36439306  0.65201590    -0.89000
H1221       H  0.77116034  0.25106040  0.53423115     0.35100
H1222       H  0.76206421  0.28779826  0.50956733     0.40200
H1223       H  0.76969888  0.36977102  0.65878950     0.39800
H1224       H  0.72942209  0.35515669  0.67528785     0.34700
C1225       C  0.73744315  0.18852573  0.59610878    -0.27000
C1226       C  0.75419903  0.18255752  0.63038734    -0.15100
C1227       C  0.78931010  0.16829743  0.63058859     0.35500
C1228       C  0.80707493  0.16183680  0.59755328    -0.26500
C1229       C  0.79111246  0.16903286  0.56338820    -0.15700
C1230       C  0.75527598  0.18119020  0.56263187     0.36600
N1231       N  0.73713372  0.18602672  0.52809127    -0.90000
H1232       H  0.71071111  0.19970716  0.59543741     0.17700
H1233       H  0.83443103  0.15225210  0.59893372     0.17700
N1234       N  0.80830558  0.16228057  0.66432579    -0.89000
H1235       H  0.71098232  0.19498992  0.53234023     0.35100
H1236       H  0.73479648  0.16057789  0.51545403     0.40200
H1237       H  0.83167538  0.17842386  0.66434015     0.39800
H1238       H  0.81585022  0.13507927  0.66504889     0.34700
C1239       C  0.34816410  0.78613546  0.86250639    -0.27000
C1240       C  0.31491533  0.76778628  0.86150881    -0.15100
C1241       C  0.29694772  0.76125012  0.89522737     0.35500
C1242       C  0.31111616  0.77451354  0.92811650    -0.26500
C1243       C  0.34256947  0.79563950  0.92894144    -0.15700
C1244       C  0.36213193  0.80017981  0.89590060     0.36600
N1245       N  0.39580055  0.81951720  0.89587580    -0.90000
H1246       H  0.36231400  0.79145597  0.83713531     0.17700
H1247       H  0.29589835  0.76989929  0.95298394     0.17700
N1248       N  0.26366894  0.74162382  0.89725752    -0.89000
H1249       H  0.39366346  0.84147147  0.87790236     0.35100
H1250       H  0.41534664  0.80217552  0.88569086     0.40200
H1251       H  0.26734199  0.71615791  0.88508949     0.39800
H1252       H  0.24394027  0.75587575  0.88346433     0.34700
C1253       C  0.16402173  0.73469833  0.87275894    -0.27000
C1254       C  0.18851972  0.71119664  0.85596128    -0.15100
C1255       C  0.19832437  0.67890322  0.87519038     0.35500
C1256       C  0.18441937  0.67180270  0.90969911    -0.26500
C1257       C  0.16163917  0.69592186  0.92687257    -0.15700
C1258       C  0.15064000  0.72739941  0.90834383     0.36600
N1259       N  0.12603265  0.75159660  0.92564074    -0.90000
H1260       H  0.15669855  0.75955405  0.85897466     0.17700
H1261       H  0.19220073  0.64717411  0.92376552     0.17700
N1262       N  0.22288674  0.65263452  0.86129254    -0.89000
H1263       H  0.12043014  0.77340091  0.90831235     0.35100
H1264       H  0.13885512  0.76248343  0.94893070     0.40200
H1265       H  0.24937329  0.66299396  0.86181782     0.39800
H1266       H  0.21584946  0.64551388  0.83492403     0.34700
C1267       C  0.16549054  0.86881819  0.72424165    -0.27000
C1268       C  0.19063864  0.86876843  0.75317189    -0.15100
C1269       C  0.20516841  0.90243044  0.76522260     0.35500
C1270       C  0.19695384  0.93466195  0.74582305    -0.26500
C1271       C  0.17351739  0.93440851  0.71508631    -0.15700
C1272       C  0.15627437  0.90096200  0.70577093     0.36600
N1273       N  0.13001814  0.89892982  0.67685814    -0.90000
H1274       H  0.15402341  0.84323822  0.71464826     0.17700
H1275       H  0.20975745  0.95993979  0.75429182     0.17700
N1276       N  0.22998248  0.90352074  0.79562301    -0.89000
H1277       H  0.10597921  0.88907051  0.68798705     0.35100
H1278       H  0.13854006  0.88009889  0.65742267     0.40200
H1279       H  0.21602601  0.89505309  0.81896384     0.39800
H1280       H  0.23864112  0.93018946  0.80079995     0.34700
C1281       C  0.31725997  0.87429767  0.79365955    -0.27000
C1282       C  0.30413292  0.87348177  0.75733890    -0.15100
C1283       C  0.29938149  0.90689547  0.73903765     0.35500
C1284       C  0.30635245  0.94005942  0.75773869    -0.26500
C1285       C  0.31825254  0.94061570  0.79454154    -0.15700
C1286       C  0.32392267  0.90708342  0.81248971     0.36600
N1287       N  0.33519410  0.90627632  0.85038746    -0.90000
H1288       H  0.32088228  0.84900482  0.80824779     0.17700
H1289       H  0.30230755  0.96543891  0.74344488     0.17700
N1290       N  0.28624492  0.90742775  0.70199760    -0.89000
H1291       H  0.33824574  0.87958101  0.85943141     0.35100
H1292       H  0.31460808  0.91732481  0.86604487     0.40200
H1293       H  0.30513932  0.92134480  0.68600408     0.39800
H1294       H  0.26245408  0.92211465  0.70146839     0.34700
C1295       C  0.30831881  0.72465634  0.56548211    -0.27000
C1296       C  0.33268042  0.69592595  0.56649862    -0.15100
C1297       C  0.35036805  0.68867824  0.60049795     0.35500
C1298       C  0.34062746  0.70736986  0.63269950    -0.26500
C1299       C  0.31363516  0.73330538  0.63195861    -0.15700
C1300       C  0.29871027  0.74314198  0.59770092     0.36600
N1301       N  0.27178015  0.77045039  0.59598586    -0.90000
H1302       H  0.29510019  0.73172308  0.53992818     0.17700
H1303       H  0.35190617  0.69912637  0.65885880     0.17700
N1304       N  0.37717662  0.66132433  0.60311610    -0.89000
H1305       H  0.24848701  0.75872331  0.58459359     0.35100
H1306       H  0.28072874  0.79081804  0.57816603     0.40200
H1307       H  0.36863980  0.64184836  0.62209799     0.39800
H1308       H  0.40083752  0.67347112  0.61321364     0.34700
C1309       C  0.16845344  0.77139325  0.57372846    -0.27000
C1310       C  0.17325525  0.80824862  0.56529880    -0.15100
C1311       C  0.18159782  0.83325877  0.59341915     0.35500
C1312       C  0.18654927  0.82106462  0.62930306    -0.26500
C1313       C  0.18391004  0.78401543  0.63773649    -0.15700
C1314       C  0.17393151  0.75903676  0.60990850     0.36600
N1315       N  0.17176105  0.72101863  0.61776669    -0.90000
H1316       H  0.16109539  0.75222840  0.55222448     0.17700
H1317       H  0.19526253  0.84036288  0.65021436     0.17700
N1318       N  0.18664968  0.87101459  0.58511780    -0.89000
H1319       H  0.19011793  0.70775512  0.60100848     0.35100
H1320       H  0.14596215  0.71171996  0.61060934     0.40200
H1321       H  0.21261341  0.87882525  0.59334102     0.39800
H1322       H  0.16840707  0.88587974  0.60051101     0.34700
C1323       C  0.30743551  0.62243687  0.66710822    -0.27000
C1324       C  0.31182503  0.63143188  0.70438714    -0.15100
C1325       C  0.32047034  0.60366055  0.72945230     0.35500
C1326       C  0.32283528  0.56740466  0.71706969    -0.26500
C1327       C  0.31665070  0.55852238  0.67998807    -0.15700
C1328       C  0.31004928  0.58670666  0.65469956     0.36600
N1329       N  0.30441364  0.57962002  0.61633191    -0.90000
H1330       H  0.29935612  0.64308672  0.64771889     0.17700
H1331       H  0.32901425  0.54614240  0.73651679     0.17700
N1332       N  0.32373728  0.61165829  0.76784785    -0.89000
H1333       H  0.28337710  0.56066535  0.61345141     0.35100
H1334       H  0.32773175  0.56854217  0.60549436     0.40200
H1335       H  0.30429500  0.59630105  0.78173493     0.39800
H1336       H  0.34901725  0.60320919  0.77674534     0.34700
C1337       C  0.19261422  0.55816062  0.77113405    -0.27000
C1338       C  0.17037526  0.55782152  0.80202401    -0.15100
C1339       C  0.15415223  0.59093483  0.81268518     0.35500
C1340       C  0.16286732  0.62352080  0.79431680    -0.26500
C1341       C  0.18839039  0.62412732  0.76630022    -0.15700
C1342       C  0.20158490  0.59063646  0.75331631     0.36600
N1343       N  0.22503819  0.58887094  0.72249729    -0.90000
H1344       H  0.20418075  0.53315011  0.76134488     0.17700
H1345       H  0.15245845  0.64888993  0.80458247     0.17700
N1346       N  0.13047216  0.59228325  0.84347442    -0.89000
H1347       H  0.24864028  0.60284310  0.72933442     0.35100
H1348       H  0.21281732  0.60187929  0.70033799     0.40200
H1349       H  0.10595526  0.60262185  0.83445893     0.39800
H1350       H  0.14147414  0.61037279  0.86284797     0.34700
loop_ 
_geom_bond_atom_site_label_1 
_geom_bond_atom_site_label_2 
_geom_bond_distance 
_geom_bond_site_symmetry_2 
_ccdc_geom_bond_type 
O1            C9   1.277       .  A
O1          Co21   1.994       .  S
O2           C10   1.274       .  A
O2          Co22   1.924       .  S
O3           C11   1.273       .  A
O3          Co23   1.999       .  S
O4           C12   1.266       .  A
O4          Co24   1.980       .  S
O5           C11   1.282       .  A
O5          Co22   2.008       .  S
O6           C12   1.281       .  A
O6          Co21   2.020       .  S
O7           C10   1.295       .  A
O7          Co24   2.113       .  S
O8            C9   1.272       .  A
O8          Co23   1.988       .  S
C9         C1324   1.479       .  S
C10        C1282   1.498       .  S
C11        C1299   1.480       .  S
C12        C1240   1.486       .  S
O13          C26   1.267       .  A
O13         Co21   1.973       .  S
O14          C27   1.266       .  A
O14         Co22   1.969       .  S
O15          C28   1.276       .  A
O15         Co23   2.000       .  S
O16          C29   1.276       .  A
O16         Co24   1.933       .  S
O17          C29   1.292       .  A
O17         Co22   2.113       .  S
O18          C28   1.275       .  A
O18         Co21   2.015       .  S
O19          C26   1.285       .  A
O19         Co24   2.013       .  S
O20          C27   1.274       .  A
O20         Co23   1.994       .  S
Co21         O25   2.034       .  S
Co22         O25   1.994       .  S
Co23         O25   2.033       .  S
Co24         O25   2.006       .  S
C26        C1254   1.492       .  S
C27        C1313   1.468       .  S
C28        C1341   1.485       .  S
C29        C1268   1.496       .  S
O30          C38   1.271       .  A
O30         Co50   2.053       .  S
O31          C39   1.269       .  A
O31         Co51   2.028       .  S
O32          C40   1.260       .  A
O32         Co52   1.966       .  S
O33          C41   1.255       .  A
O33         Co53   1.953       .  S
O34          C40   1.268       .  A
O34         Co51   2.035       .  S
O35          C41   1.268       .  A
O35         Co50   2.044       .  S
O36          C39   1.259       .  A
O36         Co53   1.968       .  S
O37          C38   1.255       .  A
O37         Co52   1.955       .  S
C38        C1226   1.499       .  S
C39        C1156   1.493       .  S
C40        C1142   1.497       .  S
C41        C1187   1.498       .  S
O42          C55   1.254       .  A
O42         Co50   1.957       .  S
O43          C56   1.259       .  A
O43         Co51   1.960       .  S
O44          C57   1.270       .  A
O44         Co52   2.046       .  S
O45          C58   1.266       .  A
O45         Co53   2.025       .  S
O46          C58   1.258       .  A
O46         Co51   1.960       .  S
O47          C57   1.253       .  A
O47         Co50   1.957       .  S
O48          C55   1.268       .  A
O48         Co53   2.053       .  S
O49          C56   1.271       .  A
O49         Co52   2.035       .  S
Co50         O54   2.130       .  S
Co51         O54   2.116       .  S
Co52         O54   2.119       .  S
Co53         O54   2.137       .  S
C55        C1198   1.499       .  S
C56        C1128   1.492       .  S
C57        C1212   1.495       .  S
C58        C1170   1.485       .  S
O59          C67   1.301       .  A
O59         Co79   2.117       .  S
O60          C68   1.275       .  A
O60         Co80   2.052       .  S
O61          C69   1.267       .  A
O61         Co81   1.971       .  S
O62          C70   1.250       .  A
O62         Co82   1.957       .  S
O63          C69   1.279       .  A
O63         Co80   2.044       .  S
O64          C70   1.257       .  A
O64         Co79   2.031       .  S
O65          C68   1.256       .  A
O65         Co82   1.957       .  S
O66          C67   1.262       .  A
O66         Co81   1.888       .  S
C67        C1100   1.482       .  S
C68        C1044   1.501       .  S
C69        C1033   1.500       .  S
C70        C1086   1.498       .  S
O71          C84   1.271       .  A
O71         Co79   1.986       .  S
O72          C85   1.253       .  A
O72         Co80   1.965       .  S
O73          C86   1.302       .  A
O73         Co81   2.120       .  S
O74          C87   1.273       .  A
O74         Co82   2.046       .  S
O75          C87   1.257       .  A
O75         Co80   1.958       .  S
O76          C86   1.262       .  A
O76         Co79   1.868       .  S
O77          C84   1.280       .  A
O77         Co82   2.042       .  S
O78          C85   1.264       .  A
O78         Co81   2.043       .  S
Co79         O83   2.048       .  S
Co80         O83   2.056       .  S
Co81         O83   2.039       .  S
Co82         O83   2.053       .  S
C84        C1072   1.505       .  S
C85        C1016   1.503       .  S
C86        C1114   1.477       .  S
C87        C1058   1.498       .  S
C88        C1005   1.483       .  S
C88          C89   1.408   1_545  A
C88          C93   1.414   1_554  A
C89         C991   1.493       .  S
C89          C90   1.409   1_554  A
C90         C949   1.470       .  S
C90          C91   1.408   1_565  A
C91         C932   1.489       .  S
C91          C92   1.409       .  A
C92         C977   1.483       .  S
C92          C93   1.413       .  A
C93         C960   1.479       .  S
C94         C918   1.483       .  S
C94          N95   1.365   1_545  A
C94          N99   1.354       .  A
N95          C96   1.363       .  A
C96        C1030   1.493       .  S
C96          N97   1.361       .  A
N97          C98   1.359       .  A
C98        C1002   1.475       .  S
C98          N99   1.353   1_565  A
C100       C1159   1.504       .  S
C100        N101   1.358       .  A
C100        N105   1.367       .  A
N101        C102   1.354       .  A
C102        C963   1.487       .  S
C102        N103   1.354   1_556  A
N103        C104   1.358       .  A
C104        C904   1.493       .  S
C104        N105   1.368   1_554  A
C106       C1285   1.497       .  S
C106        N107   1.359       .  A
C106        N111   1.372   1_565  A
N107        C108   1.354   1_565  A
C108        C935   1.486       .  S
C108        N109   1.354       .  A
N109        C110   1.360       .  A
C110        C890   1.498       .  S
C110        N111   1.372       .  A
C112       C1184   1.497       .  S
C112        N113   1.375       .  A
C112        N117   1.354       .  A
N113        C114   1.378       .  A
C114        C879   1.515       .  S
C114        N115   1.362       .  A
N115        C116   1.353       .  A
C116        C974   1.481       .  S
C116        N117   1.348       .  A
C118       C1103   1.506       .  S
C118        N119   1.362       .  A
C118        N123   1.365       .  A
N119        C120   1.361       .  A
C120        C988   1.486       .  S
C120        N121   1.357       .  A
N121        C122   1.354       .  A
C122        C862   1.478       .  S
C122        N123   1.363       .  A
C124        C848   1.475       .  S
C124        N125   1.354       .  A
C124        N129   1.362   1_554  A
N125        C126   1.355   1_554  A
C126        C946   1.463       .  S
C126        N127   1.354       .  A
N127        C128   1.350       .  A
C128       C1243   1.488       .  S
C128        N129   1.361       .  A
C130        C764   1.497       .  S
C130        C131   1.412   1_455  A
C130        C135   1.416       .  A
C131        C834   1.481       .  S
C131        C132   1.412       .  A
C132        C820   1.479       .  S
C132        C133   1.410   1_556  A
C133        C806   1.490       .  S
C133        C134   1.408       .  A
C134        C792   1.489       .  S
C134        C135   1.416   1_654  A
C135        C781   1.478       .  S
C136        C753   1.476       .  S
C136        N137   1.363   1_554  A
C136        N141   1.354       .  A
N137        C138   1.360       .  A
C138       C1257   1.466       .  S
C138        N139   1.352       .  A
N139        C140   1.355       .  A
C140        C778   1.475       .  S
C140        N141   1.353   1_556  A
C142       C1338   1.499       .  S
C142        N143   1.352       .  A
C142        N147   1.369       .  A
N143        C144   1.353       .  A
C144        C767   1.488       .  S
C144        N145   1.363       .  A
N145        C146   1.368       .  A
C146        C736   1.517       .  S
C146        N147   1.370       .  A
C148       C1047   1.508       .  S
C148        N149   1.368   1_655  A
C148        N153   1.363       .  A
N149        C150   1.367       .  A
C150        C722   1.477       .  S
C150        N151   1.353       .  A
N151        C152   1.354   1_455  A
C152        C795   1.479       .  S
C152        N153   1.358       .  A
C154       C1089   1.493       .  S
C154        N155   1.369       .  A
C154        N159   1.357       .  A
N155        C156   1.371       .  A
C156        C711   1.511       .  S
C156        N157   1.364       .  A
N157        C158   1.358       .  A
C158        C809   1.489       .  S
C158        N159   1.352       .  A
C160        C694   1.501       .  S
C160        N161   1.370   1_455  A
C160        N165   1.357       .  A
N161        C162   1.373       .  A
C162       C1131   1.502       .  S
C162        N163   1.360       .  A
N163        C164   1.353       .  A
C164        C837   1.480       .  S
C164        N165   1.350   1_655  A
C166        C680   1.494       .  S
C166        N167   1.372       .  A
C166        N171   1.360       .  A
N167        C168   1.370   1_554  A
C168       C1173   1.487       .  S
C168        N169   1.354       .  A
N169        C170   1.348   1_556  A
C170        C823   1.481   1_554  S
C170        N171   1.354       .  A
C172        C666   1.492       .  S
C172        C173   1.407       .  A
C172        C177   1.419       .  A
C173        C610   1.486       .  S
C173        C174   1.408       .  A
C174        C599   1.483       .  S
C174        C175   1.412       .  A
C175        C627   1.485       .  S
C175        C176   1.415       .  A
C176        C638   1.497       .  S
C176        C177   1.420       .  A
C177        C655   1.483       .  S
C178        C582   1.503       .  S
C178        N179   1.372       .  A
C178        N183   1.359       .  A
N179        C180   1.372       .  A
C180       C1201   1.496       .  S
C180        N181   1.360       .  A
N181        C182   1.353       .  A
C182        C669   1.489       .  S
C182        N183   1.352       .  A
C184        C568   1.488       .  S
C184        N185   1.355       .  A
C184        N189   1.368       .  A
N185        C186   1.352       .  A
C186        C596   1.480       .  S
C186        N187   1.355       .  A
N187        C188   1.358       .  A
C188       C1296   1.505       .  S
C188        N189   1.372       .  A
C190        C554   1.507       .  S
C190        N191   1.365       .  A
C190        N195   1.357       .  A
N191        C192   1.371       .  A
C192       C1075   1.511       .  S
C192        N193   1.368       .  A
N193        C194   1.363       .  A
C194        C641   1.500       .  S
C194        N195   1.356       .  A
C196        C543   1.500       .  S
C196        N197   1.361       .  A
C196        N201   1.368       .  A
N197        C198   1.357       .  A
C198        C624   1.481       .  S
C198        N199   1.353       .  A
N199        C200   1.356       .  A
C200       C1117   1.488       .  S
C200        N201   1.365       .  A
C202        C529   1.512       .  S
C202        N203   1.367       .  A
C202        N207   1.372       .  A
N203        C204   1.360       .  A
C204        C613   1.478       .  S
C204        N205   1.349       .  A
N205        C206   1.348       .  A
C206       C1327   1.478       .  S
C206        N207   1.368       .  A
C208        C512   1.486       .  S
C208        N209   1.364       .  A
C208        N213   1.347       .  A
N209        C210   1.368       .  A
C210       C1215   1.502       .  S
C210        N211   1.367       .  A
N211        C212   1.359       .  A
C212        C652   1.478       .  S
C212        N213   1.347       .  A
C214        C484   1.504       .  S
C214        C215   1.413       .  A
C214        C219   1.412   1_465  A
C215        C498   1.470       .  S
C215        C216   1.414   1_455  A
C216        C431   1.486       .  S
C216        C217   1.404       .  A
C217        C442   1.486       .  S
C217        C218   1.408   1_565  A
C218        C459   1.484       .  S
C218        C219   1.416       .  A
C219        C473   1.472       .  S
C220       C1145   1.506       .  S
C220        N221   1.361       .  A
C220        N225   1.376       .  A
N221        C222   1.352       .  A
C222        C470   1.474       .  S
C222        N223   1.342   1_655  A
N223        C224   1.347       .  A
C224        C414   1.490       .  S
C224        N225   1.370   1_455  A
C226        C400   1.517       .  S
C226        N227   1.366       .  A
C226        N231   1.368   1_545  A
N227        C228   1.364       .  A
C228        C487   1.509       .  S
C228        N229   1.363   1_545  A
N229        C230   1.363       .  A
C230       C1271   1.516       .  S
C230        N231   1.366       .  A
C232       C1310   1.465       .  S
C232        N233   1.346       .  A
C232        N237   1.361       .  A
N233        C234   1.347       .  A
C234        C501   1.461       .  S
C234        N235   1.355       .  A
N235        C236   1.361       .  A
C236        C386   1.493       .  S
C236        N237   1.367       .  A
C238       C1229   1.496       .  S
C238        N239   1.360       .  A
C238        N243   1.370       .  A
N239        C240   1.353       .  A
C240        C456   1.476       .  S
C240        N241   1.351       .  A
N241        C242   1.354       .  A
C242        C372   1.501       .  S
C242        N243   1.372       .  A
C244        C358   1.485       .  S
C244        N245   1.352       .  A
C244        N249   1.370   1_545  A
N245        C246   1.351   1_545  A
C246        C445   1.491       .  S
C246        N247   1.357       .  A
N247        C248   1.365       .  A
C248       C1019   1.511       .  S
C248        N249   1.374       .  A
C250       C1061   1.506       .  S
C250        N251   1.360       .  A
C250        N255   1.373   1_655  A
N251        C252   1.353   1_655  A
C252        C428   1.481   1_455  S
C252        N253   1.349       .  A
N253        C254   1.353       .  A
C254        C344   1.502       .  S
C254        N255   1.372       .  A
O256        C264   1.278       .  A
O256       Co276   2.042       .  S
O257        C265   1.263       .  A
O257       Co277   2.036       .  S
O258        C266   1.262       .  A
O258       Co278   1.861       .  S
O259        C267   1.256       .  A
O259       Co279   1.959       .  S
O260        C266   1.303       .  A
O260       Co277   2.120       .  S
O261        C267   1.273       .  A
O261       Co276   2.041       .  S
O262        C265   1.252       .  A
O262       Co279   1.968       .  S
O263        C264   1.270       .  A
O263       Co278   1.992       .  S
C264        C403   1.505       .  S
C265        C526   1.503       .  S
C266        C417   1.469       .  S
C267        C585   1.496       .  S
O268        C281   1.259       .  A
O268       Co276   1.964       .  S
O269        C282   1.261       .  A
O269       Co277   1.874       .  S
O270        C283   1.261       .  A
O270       Co278   2.036       .  S
O271        C284   1.281       .  A
O271       Co279   2.051       .  S
O272        C284   1.272       .  A
O272       Co277   1.984       .  S
O273        C283   1.253       .  A
O273       Co276   1.960       .  S
O274        C281   1.273       .  A
O274       Co279   2.047       .  S
O275        C282   1.303       .  A
O275       Co278   2.125       .  S
Co276       O280   2.061       .  S
Co277       O280   2.037       .  S
Co278       O280   2.051       .  S
Co279       O280   2.058       .  S
C281        C876   1.503       .  S
C282        C697   1.483       .  S
C283        C893   1.501       .  S
C284        C739   1.514       .  S
O285        C293   1.260       .  A
O285       Co305   1.968       .  S
O286        C294   1.289       .  A
O286       Co306   2.032       .  S
O287        C295   1.277       .  A
O287       Co307   1.963       .  S
O288        C296   1.264       .  A
O288       Co308   1.989       .  S
O289        C295   1.285       .  A
O289       Co306   2.024       .  S
O290        C296   1.270       .  A
O290       Co305   2.014       .  S
O291        C294   1.277       .  A
O291       Co308   1.952       .  S
O292        C293   1.275       .  A
O292       Co307   2.012       .  S
C293        C361   1.484       .  S
C294        C708   1.497       .  S
C295        C683   1.502       .  S
C296        C375   1.471       .  S
O297        C310   1.268       .  A
O297       Co305   1.978       .  S
O298        C311   1.257       .  A
O298       Co306   2.004       .  S
O299        C312   1.270       .  A
O299       Co307   1.972       .  S
O300        C313   1.245       .  A
O300       Co308   1.963       .  S
O301        C313   1.256       .  A
O301       Co306   2.032       .  S
O302        C312   1.279       .  A
O302       Co305   2.009       .  S
O303        C310   1.273       .  A
O303       Co308   2.001       .  S
O304        C311   1.248       .  A
O304       Co307   1.960       .  S
Co305       O309   2.090       .  S
Co306       O309   2.261       .  S
Co307       O309   1.990       .  S
Co308       O309   1.957       .  S
C310        C515   1.463       .  S
C311        C907   1.481       .  S
C312        C921   1.485       .  S
C313        C557   1.504       .  S
O314        C322   1.275       .  A
O314       Co334   1.985       .  S
O315        C323   1.281       .  A
O315       Co335   2.012       .  S
O316        C324   1.273       .  A
O316       Co336   1.998       .  S
O317        C325   1.275       .  A
O317       Co337   1.981       .  S
O318        C324   1.276       .  A
O318       Co335   1.994       .  S
O319        C325   1.282       .  A
O319       Co334   2.006       .  S
O320        C323   1.275       .  A
O320       Co337   2.001       .  S
O321        C322   1.277       .  A
O321       Co336   2.024       .  S
C322        C540   1.487       .  S
C323        C725   1.494       .  S
C324        C571   1.473       .  S
C325        C750   1.467       .  S
O326        C339   1.276       .  A
O326       Co334   1.992       .  S
O327        C340   1.273       .  A
O327       Co335   1.993       .  S
O328        C341   1.283       .  A
O328       Co336   2.016       .  S
O329        C342   1.272       .  A
O329       Co337   1.972       .  S
O330        C342   1.279       .  A
O330       Co335   2.039       .  S
O331        C341   1.276       .  A
O331       Co334   2.004       .  S
O332        C339   1.281       .  A
O332       Co337   1.998       .  S
O333        C340   1.273       .  A
O333       Co336   1.987       .  S
Co334       O338   1.967       .  S
Co335       O338   2.056       .  S
Co336       O338   2.053       .  S
Co337       O338   1.962       .  S
C339        C851   1.473       .  S
C340        C389   1.470       .  S
C341        C865   1.498       .  S
C342        C347   1.483       .  S
C343        C344   1.405       .  A
C343        C348   1.410       .  A
C343        H350   1.084       .  S
C344        C345   1.426       .  A
C345        C346   1.402       .  A
C345        N352   1.432       .  S
C346        C347   1.388       .  A
C346        H351   1.078       .  S
C347        C348   1.415       .  A
C348        N349   1.428       .  S
N349        H353   1.046       .  S
N349        H354   1.044       .  S
N352        H355   1.045       .  S
N352        H356   1.046       .  S
C357        C358   1.407       .  A
C357        C362   1.421       .  A
C357        H364   1.083       .  S
C358        C359   1.409       .  A
C359        C360   1.400       .  A
C359        N366   1.440       .  S
C360        C361   1.405       .  A
C360        H365   1.081       .  S
C361        C362   1.415       .  A
C362        N363   1.436       .  S
N363        H367   1.046       .  S
N363        H368   1.045       .  S
N366        H369   1.046       .  S
N366        H370   1.045       .  S
C371        C372   1.407       .  A
C371        C376   1.407       .  A
C371        H378   1.083       .  S
C372        C373   1.432       .  A
C373        C374   1.400       .  A
C373        N380   1.432       .  S
C374        C375   1.392       .  A
C374        H379   1.084       .  S
C375        C376   1.405       .  A
C376        N377   1.432       .  S
N377        H381   1.045       .  S
N377        H382   1.042       .  S
N380        H383   1.044       .  S
N380        H384   1.044       .  S
C385        C386   1.413       .  A
C385        C390   1.405       .  A
C385        H392   1.083       .  S
C386        C387   1.415       .  A
C387        C388   1.403       .  A
C387        N394   1.438       .  S
C388        C389   1.404       .  A
C388        H393   1.084       .  S
C389        C390   1.398       .  A
C390        N391   1.430       .  S
N391        H395   1.045       .  S
N391        H396   1.043       .  S
N394        H397   1.045       .  S
N394        H398   1.046       .  S
C399        C400   1.416       .  A
C399        C404   1.419       .  A
C399        H406   1.083       .  S
C400        C401   1.424       .  A
C401        C402   1.406       .  A
C401        N408   1.431       .  S
C402        C403   1.405       .  A
C402        H407   1.081       .  S
C403        C404   1.410       .  A
C404        N405   1.436       .  S
N405        H409   1.046       .  S
N405        H410   1.045       .  S
N408        H411   1.045       .  S
N408        H412   1.045       .  S
C413        C414   1.408       .  A
C413        C418   1.387       .  A
C413        H420   1.084       .  S
C414        C415   1.410       .  A
C415        C416   1.414       .  A
C415        N422   1.430       .  S
C416        C417   1.405       .  A
C416        H421   1.084       .  S
C417        C418   1.406       .  A
C418        N419   1.429       .  S
N419        H423   1.043       .  S
N419        H424   1.045       .  S
N422        H425   1.045       .  S
N422        H426   1.046       .  S
C427        C428   1.407   1_455  A
C427        C432   1.399       .  A
C427        H434   1.084       .  S
C428        C429   1.409       .  A
C429        C430   1.400       .  A
C429        N436   1.432       .  S
C430        C431   1.401       .  A
C430        H435   1.084       .  S
C431        C432   1.414   1_655  A
C432        N433   1.438       .  S
N433        H437   1.045       .  S
N433        H438   1.043       .  S
N436        H439   1.046       .  S
N436        H440   1.046       .  S
C441        C442   1.401       .  A
C441        C446   1.401       .  A
C441        H448   1.084       .  S
C442        C443   1.402   1_565  A
C443        C444   1.399       .  A
C443        N450   1.432       .  S
C444        C445   1.410   1_545  A
C444        H449   1.083       .  S
C445        C446   1.421       .  A
C446        N447   1.431       .  S
N447        H451   1.045       .  S
N447        H452   1.045       .  S
N450        H453   1.046       .  S
N450        H454   1.045       .  S
C455        C456   1.404       .  A
C455        C460   1.402       .  A
C455        H462   1.084       .  S
C456        C457   1.408       .  A
C457        C458   1.397       .  A
C457        N464   1.432       .  S
C458        C459   1.400       .  A
C458        H463   1.084       .  S
C459        C460   1.415       .  A
C460        N461   1.438       .  S
N461        H465   1.045   1_545  S
N461        H466   1.043   1_545  S
N464        H467   1.046       .  S
N464        H468   1.046       .  S
C469        C470   1.404       .  A
C469        C474   1.401       .  A
C469        H476   1.083       .  S
C470        C471   1.417   1_655  A
C471        C472   1.397       .  A
C471        N478   1.439       .  S
C472        C473   1.395   1_455  A
C472        H477   1.084       .  S
C473        C474   1.404       .  A
C474        N475   1.431       .  S
N475        H479   1.045       .  S
N475        H480   1.045   1_545  S
N478        H481   1.046   1_455  S
N478        H482   1.046       .  S
C483        C484   1.404   1_545  A
C483        C488   1.411       .  A
C483        H490   1.083       .  S
C484        C485   1.417       .  A
C485        C486   1.408       .  A
C485        N492   1.439       .  S
C486        C487   1.410   1_565  A
C486        H491   1.083       .  S
C487        C488   1.418       .  A
C488        N489   1.432       .  S
N489        H493   1.046       .  S
N489        H494   1.046       .  S
N492        H495   1.043       .  S
N492        H496   1.045       .  S
C497        C498   1.397       .  A
C497        C502   1.390       .  A
C497        H504   1.084       .  S
C498        C499   1.415       .  A
C499        C500   1.399       .  A
C499        N506   1.438       .  S
C500        C501   1.402       .  A
C500        H505   1.084       .  S
C501        C502   1.406       .  A
C502        N503   1.433       .  S
N503        H507   1.046       .  S
N503        H508   1.046       .  S
N506        H509   1.043   1_565  S
N506        H510   1.045       .  S
C511        C512   1.414       .  A
C511        C516   1.401       .  A
C511        H518   1.083       .  S
C512        C513   1.407       .  A
C513        C514   1.403       .  A
C513        N520   1.431       .  S
C514        C515   1.404       .  A
C514        H519   1.084       .  S
C515        C516   1.398       .  A
C516        N517   1.435       .  S
N517        H521   1.045       .  S
N517        H522   1.045       .  S
N520        H523   1.045       .  S
N520        H524   1.045       .  S
C525        C526   1.408       .  A
C525        C530   1.418       .  A
C525        H532   1.083       .  S
C526        C527   1.413       .  A
C527        C528   1.410       .  A
C527        N534   1.438       .  S
C528        C529   1.411       .  A
C528        H533   1.083       .  S
C529        C530   1.420       .  A
C530        N531   1.437       .  S
N531        H535   1.045       .  S
N531        H536   1.045       .  S
N534        H537   1.046       .  S
N534        H538   1.046       .  S
C539        C540   1.409       .  A
C539        C544   1.406       .  A
C539        H546   1.084       .  S
C540        C541   1.401       .  A
C541        C542   1.410       .  A
C541        N548   1.430       .  S
C542        C543   1.415       .  A
C542        H547   1.083       .  S
C543        C544   1.413       .  A
C544        N545   1.433       .  S
N545        H549   1.046       .  S
N545        H550   1.045       .  S
N548        H551   1.045       .  S
N548        H552   1.046       .  S
C553        C554   1.412       .  A
C553        C558   1.423       .  A
C553        H560   1.083       .  S
C554        C555   1.416       .  A
C555        C556   1.400       .  A
C555        N562   1.434       .  S
C556        C557   1.403       .  A
C556        H561   1.079       .  S
C557        C558   1.417       .  A
C558        N559   1.436       .  S
N559        H563   1.046       .  S
N559        H564   1.045       .  S
N562        H565   1.046       .  S
N562        H566   1.045       .  S
C567        C568   1.407       .  A
C567        C572   1.413       .  A
C567        H574   1.084       .  S
C568        C569   1.414       .  A
C569        C570   1.399       .  A
C569        N576   1.433       .  S
C570        C571   1.397       .  A
C570        H575   1.083       .  S
C571        C572   1.411       .  A
C572        N573   1.432       .  S
N573        H577   1.046       .  S
N573        H578   1.045       .  S
N576        H579   1.046       .  S
N576        H580   1.046       .  S
C581        C582   1.408       .  A
C581        C586   1.400       .  A
C581        H588   1.083       .  S
C582        C583   1.412       .  A
C583        C584   1.412       .  A
C583        N590   1.424       .  S
C584        C585   1.407       .  A
C584        H589   1.084       .  S
C585        C586   1.415       .  A
C586        N587   1.433       .  S
N587        H591   1.046       .  S
N587        H592   1.046       .  S
N590        H593   1.046       .  S
N590        H594   1.044       .  S
C595        C596   1.404       .  A
C595        C600   1.400       .  A
C595        H602   1.084       .  S
C596        C597   1.411       .  A
C597        C598   1.400       .  A
C597        N604   1.432       .  S
C598        C599   1.399       .  A
C598        H603   1.083       .  S
C599        C600   1.415       .  A
C600        N601   1.439       .  S
N601        H605   1.046       .  S
N601        H606   1.043       .  S
N604        H607   1.046       .  S
N604        H608   1.046       .  S
C609        C610   1.398       .  A
C609        C614   1.398       .  A
C609        H616   1.084       .  S
C610        C611   1.418       .  A
C611        C612   1.404       .  A
C611        N618   1.438       .  S
C612        C613   1.403       .  A
C612        H617   1.084       .  S
C613        C614   1.412       .  A
C614        N615   1.433       .  S
N615        H619   1.046       .  S
N615        H620   1.046       .  S
N618        H621   1.044       .  S
N618        H622   1.045       .  S
C623        C624   1.404       .  A
C623        C628   1.401       .  A
C623        H630   1.084       .  S
C624        C625   1.411       .  A
C625        C626   1.402       .  A
C625        N632   1.432       .  S
C626        C627   1.401       .  A
C626        H631   1.084       .  S
C627        C628   1.416       .  A
C628        N629   1.438       .  S
N629        H633   1.045       .  S
N629        H634   1.043       .  S
N632        H635   1.046       .  S
N632        H636   1.046       .  S
C637        C638   1.405       .  A
C637        C642   1.412       .  A
C637        H644   1.084       .  S
C638        C639   1.405       .  A
C639        C640   1.404       .  A
C639        N646   1.431       .  S
C640        C641   1.409       .  A
C640        H645   1.083       .  S
C641        C642   1.415       .  A
C642        N643   1.431       .  S
N643        H647   1.046       .  S
N643        H648   1.046       .  S
N646        H649   1.045       .  S
N646        H650   1.045       .  S
C651        C652   1.405       .  A
C651        C656   1.394       .  A
C651        H658   1.084       .  S
C652        C653   1.415       .  A
C653        C654   1.403       .  A
C653        N660   1.431       .  S
C654        C655   1.404       .  A
C654        H659   1.084       .  S
C655        C656   1.405       .  A
C656        N657   1.433       .  S
N657        H661   1.045       .  S
N657        H662   1.045       .  S
N660        H663   1.046       .  S
N660        H664   1.045       .  S
C665        C666   1.400       .  A
C665        C670   1.402       .  A
C665        H672   1.082       .  S
C666        C667   1.405       .  A
C667        C668   1.405       .  A
C667        N674   1.432       .  S
C668        C669   1.408       .  A
C668        H673   1.083       .  S
C669        C670   1.415       .  A
C670        N671   1.432       .  S
N671        H675   1.046       .  S
N671        H676   1.046       .  S
N674        H677   1.046       .  S
N674        H678   1.045       .  S
C679        C680   1.406       .  A
C679        C684   1.412       .  A
C679        H686   1.083       .  S
C680        C681   1.410       .  A
C681        C682   1.401       .  A
C681        N688   1.432       .  S
C682        C683   1.407       .  A
C682        H687   1.084       .  S
C683        C684   1.423       .  A
C684        N685   1.431       .  S
N685        H689   1.045       .  S
N685        H690   1.045       .  S
N688        H691   1.043       .  S
N688        H692   1.046       .  S
C693        C694   1.408       .  A
C693        C698   1.392       .  A
C693        H700   1.083       .  S
C694        C695   1.419       .  A
C695        C696   1.414       .  A
C695        N702   1.431       .  S
C696        C697   1.408       .  A
C696        H701   1.083       .  S
C697        C698   1.407       .  A
C698        N699   1.427       .  S
N699        H703   1.042       .  S
N699        H704   1.046       .  S
N702        H705   1.045       .  S
N702        H706   1.040       .  S
C707        C708   1.400       .  A
C707        C712   1.400       .  A
C707        H714   1.084       .  S
C708        C709   1.415       .  A
C709        C710   1.420       .  A
C709        N716   1.436       .  S
C710        C711   1.413       .  A
C710        H715   1.083       .  S
C711        C712   1.419       .  A
C712        N713   1.429       .  S
N713        H717   1.043       .  S
N713        H718   1.046       .  S
N716        H719   1.045       .  S
N716        H720   1.045       .  S
C721        C722   1.406       .  A
C721        C726   1.415       .  A
C721        H728   1.083       .  S
C722        C723   1.407       .  A
C723        C724   1.395       .  A
C723        N730   1.433       .  S
C724        C725   1.411       .  A
C724        H729   1.082       .  S
C725        C726   1.412       .  A
C726        N727   1.431       .  S
N727        H731   1.046       .  S
N727        H732   1.046       .  S
N730        H733   1.046       .  S
N730        H734   1.045       .  S
C735        C736   1.412       .  A
C735        C740   1.412       .  A
C735        H742   1.083       .  S
C736        C737   1.420       .  A
C737        C738   1.415       .  A
C737        N744   1.438       .  S
C738        C739   1.406       .  A
C738        H743   1.082       .  S
C739        C740   1.421       .  A
C740        N741   1.433       .  S
N741        H745   1.040       .  S
N741        H746   1.045       .  S
N744        H747   1.046       .  S
N744        H748   1.045       .  S
C749        C750   1.408       .  A
C749        C754   1.391       .  A
C749        H756   1.084       .  S
C750        C751   1.402       .  A
C751        C752   1.408       .  A
C751        N758   1.436       .  S
C752        C753   1.413       .  A
C752        H757   1.083       .  S
C753        C754   1.403       .  A
C754        N755   1.433       .  S
N755        H759   1.046       .  S
N755        H760   1.046       .  S
N758        H761   1.045       .  S
N758        H762   1.045       .  S
C763        C764   1.400       .  A
C763        C768   1.402       .  A
C763        H770   1.081       .  S
C764        C765   1.416       .  A
C765        C766   1.407       .  A
C765        N772   1.432       .  S
C766        C767   1.405       .  A
C766        H771   1.084       .  S
C767        C768   1.413       .  A
C768        N769   1.433       .  S
N769        H773   1.046       .  S
N769        H774   1.046       .  S
N772        H775   1.043       .  S
N772        H776   1.044   1_556  S
C777        C778   1.403       .  A
C777        C782   1.394       .  A
C777        H784   1.084       .  S
C778        C779   1.412   1_556  A
C779        C780   1.397       .  A
C779        N786   1.433       .  S
C780        C781   1.401   1_554  A
C780        H785   1.083       .  S
C781        C782   1.414       .  A
C782        N783   1.439       .  S
N783        H787   1.045   1_455  S
N783        H788   1.042   1_455  S
N786        H789   1.046       .  S
N786        H790   1.046       .  S
C791        C792   1.401       .  A
C791        C796   1.403   1_655  A
C791        H798   1.083   1_655  S
C792        C793   1.416       .  A
C793        C794   1.403       .  A
C793        N800   1.437       .  S
C794        C795   1.403       .  A
C794        H799   1.084       .  S
C795        C796   1.411   1_655  A
C796        N797   1.438       .  S
N797        H801   1.046       .  S
N797        H802   1.046   1_455  S
N800        H803   1.043   1_554  S
N800        H804   1.045   1_554  S
C805        C806   1.400       .  A
C805        C810   1.397       .  A
C805        H812   1.084       .  S
C806        C807   1.416       .  A
C807        C808   1.405       .  A
C807        N814   1.438       .  S
C808        C809   1.408       .  A
C808        H813   1.084       .  S
C809        C810   1.416       .  A
C810        N811   1.430       .  S
N811        H815   1.041       .  S
N811        H816   1.045       .  S
N814        H817   1.043   1_554  S
N814        H818   1.045       .  S
C819        C820   1.398       .  A
C819        C824   1.401       .  A
C819        H826   1.083       .  S
C820        C821   1.414   1_556  A
C821        C822   1.399       .  A
C821        N828   1.439       .  S
C822        C823   1.405   1_554  A
C822        H827   1.084       .  S
C823        C824   1.417       .  A
C824        N825   1.438       .  S
N825        H829   1.046       .  S
N825        H830   1.046       .  S
N828        H831   1.043       .  S
N828        H832   1.045       .  S
C833        C834   1.398       .  A
C833        C838   1.400       .  A
C833        H840   1.083   1_655  S
C834        C835   1.406       .  A
C835        C836   1.402       .  A
C835        N842   1.432       .  S
C836        C837   1.405       .  A
C836        H841   1.084       .  S
C837        C838   1.413       .  A
C838        N839   1.432   1_655  S
N839        H843   1.046   1_455  S
N839        H844   1.046       .  S
N842        H845   1.045       .  S
N842        H846   1.045       .  S
C847        C848   1.396       .  A
C847        C852   1.391       .  A
C847        H854   1.084       .  S
C848        C849   1.420       .  A
C849        C850   1.400       .  A
C849        N856   1.430       .  S
C850        C851   1.398       .  A
C850        H855   1.084       .  S
C851        C852   1.419       .  A
C852        N853   1.435       .  S
N853        H857   1.046       .  S
N853        H858   1.045       .  S
N856        H859   1.045       .  S
N856        H860   1.043       .  S
C861        C862   1.407       .  A
C861        C866   1.416       .  A
C861        H868   1.084       .  S
C862        C863   1.405       .  A
C863        C864   1.395       .  A
C863        N870   1.433       .  S
C864        C865   1.413       .  A
C864        H869   1.082       .  S
C865        C866   1.412       .  A
C866        N867   1.431       .  S
N867        H871   1.046       .  S
N867        H872   1.045       .  S
N870        H873   1.045       .  S
N870        H874   1.046       .  S
C875        C876   1.403       .  A
C875        C880   1.404       .  A
C875        H882   1.084       .  S
C876        C877   1.414       .  A
C877        C878   1.419       .  A
C877        N884   1.431       .  S
C878        C879   1.411       .  A
C878        H883   1.082       .  S
C879        C880   1.424       .  A
C880        N881   1.433       .  S
N881        H885   1.045       .  S
N881        H886   1.046       .  S
N884        H887   1.042       .  S
N884        H888   1.045       .  S
C889        C890   1.408       .  A
C889        C894   1.414       .  A
C889        H896   1.083       .  S
C890        C891   1.416       .  A
C891        C892   1.404       .  A
C891        N898   1.439       .  S
C892        C893   1.407       .  A
C892        H897   1.084       .  S
C893        C894   1.420       .  A
C894        N895   1.432       .  S
N895        H899   1.044       .  S
N895        H900   1.045       .  S
N898        H901   1.046       .  S
N898        H902   1.045       .  S
C903        C904   1.405       .  A
C903        C908   1.400       .  A
C903        H910   1.083       .  S
C904        C905   1.410       .  A
C905        C906   1.409       .  A
C905        N912   1.425       .  S
C906        C907   1.403       .  A
C906        H911   1.084       .  S
C907        C908   1.410       .  A
C908        N909   1.431       .  S
N909        H913   1.046       .  S
N909        H914   1.046       .  S
N912        H915   1.041       .  S
N912        H916   1.045       .  S
C917        C918   1.414       .  A
C917        C922   1.407       .  A
C917        H924   1.084       .  S
C918        C919   1.405       .  A
C919        C920   1.394       .  A
C919        N926   1.433       .  S
C920        C921   1.409       .  A
C920        H925   1.082       .  S
C921        C922   1.409       .  A
C922        N923   1.431       .  S
N923        H927   1.043       .  S
N923        H928   1.045       .  S
N926        H929   1.046       .  S
N926        H930   1.046       .  S
C931        C932   1.401   1_565  A
C931        C936   1.402       .  A
C931        H938   1.083       .  S
C932        C933   1.416       .  A
C933        C934   1.403       .  A
C933        N940   1.439       .  S
C934        C935   1.406       .  A
C934        H939   1.084       .  S
C935        C936   1.412   1_545  A
C936        N937   1.432       .  S
N937        H941   1.046       .  S
N937        H942   1.046       .  S
N940        H943   1.043       .  S
N940        H944   1.046       .  S
C945        C946   1.401       .  A
C945        C950   1.392       .  A
C945        H952   1.084       .  S
C946        C947   1.407   1_556  A
C947        C948   1.396       .  A
C947        N954   1.431       .  S
C948        C949   1.399   1_554  A
C948        H953   1.084       .  S
C949        C950   1.412       .  A
C950        N951   1.438       .  S
N951        H955   1.045       .  S
N951        H956   1.043       .  S
N954        H957   1.045       .  S
N954        H958   1.046       .  S
C959        C960   1.398       .  A
C959        C964   1.401       .  A
C959        H966   1.083       .  S
C960        C961   1.412   1_556  A
C961        C962   1.400       .  A
C961        N968   1.439       .  S
C962        C963   1.408   1_554  A
C962        H967   1.083       .  S
C963        C964   1.417       .  A
C964        N965   1.438       .  S
N965        H969   1.046       .  S
N965        H970   1.046       .  S
N968        H971   1.043       .  S
N968        H972   1.046       .  S
C973        C974   1.406       .  A
C973        C978   1.399       .  A
C973        H980   1.084       .  S
C974        C975   1.414       .  A
C975        C976   1.408       .  A
C975        N982   1.437       .  S
C976        C977   1.402       .  A
C976        H981   1.083       .  S
C977        C978   1.402       .  A
C978        N979   1.432       .  S
N979        H983   1.045       .  S
N979        H984   1.046       .  S
N982        H985   1.046       .  S
N982        H986   1.046       .  S
C987        C988   1.405       .  A
C987        C992   1.402       .  A
C987        H994   1.084       .  S
C988        C989   1.412       .  A
C989        C990   1.401       .  A
C989        N996   1.432       .  S
C990        C991   1.401       .  A
C990        H995   1.084       .  S
C991        C992   1.417       .  A
C992        N993   1.436       .  S
N993        H997   1.045       .  S
N993        H998   1.041   1_554  S
N996        H999   1.046       .  S
N996       H1000   1.045       .  S
C1001      C1002   1.402       .  A
C1001      C1006   1.400       .  A
C1001      H1008   1.084       .  S
C1002      C1003   1.409   1_565  A
C1003      C1004   1.400       .  A
C1003      N1010   1.432       .  S
C1004      C1005   1.401       .  A
C1004      H1009   1.084       .  S
C1005      C1006   1.417   1_545  A
C1006      N1007   1.437   1_554  S
N1007      H1011   1.046       .  S
N1007      H1012   1.042       .  S
N1010      H1013   1.046       .  S
N1010      H1014   1.046       .  S
C1015      C1016   1.412       .  A
C1015      C1020   1.419       .  A
C1015      H1022   1.083       .  S
C1016      C1017   1.412       .  A
C1017      C1018   1.405       .  A
C1017      N1024   1.433       .  S
C1018      C1019   1.410       .  A
C1018      H1023   1.082       .  S
C1019      C1020   1.415       .  A
C1020      N1021   1.430       .  S
N1021      H1025   1.046       .  S
N1021      H1026   1.042       .  S
N1024      H1027   1.046       .  S
N1024      H1028   1.046       .  S
C1029      C1030   1.407       .  A
C1029      C1034   1.416       .  A
C1029      H1036   1.083       .  S
C1030      C1031   1.408       .  A
C1031      C1032   1.402       .  A
C1031      N1038   1.433       .  S
C1032      C1033   1.407       .  A
C1032      H1037   1.078       .  S
C1033      C1034   1.416       .  A
C1034      N1035   1.437       .  S
N1035      H1039   1.046       .  S
N1035      H1040   1.045       .  S
N1038      H1041   1.046       .  S
N1038      H1042   1.044       .  S
C1043      C1044   1.409       .  A
C1043      C1048   1.419       .  A
C1043      H1050   1.083       .  S
C1044      C1045   1.413       .  A
C1045      C1046   1.403       .  A
C1045      N1052   1.433       .  S
C1046      C1047   1.408       .  A
C1046      H1051   1.083       .  S
C1047      C1048   1.420       .  A
C1048      N1049   1.437       .  S
N1049      H1053   1.045       .  S
N1049      H1054   1.045       .  S
N1052      H1055   1.046       .  S
N1052      H1056   1.046       .  S
C1057      C1058   1.404       .  A
C1057      C1062   1.399       .  A
C1057      H1064   1.084       .  S
C1058      C1059   1.415       .  A
C1059      C1060   1.418       .  A
C1059      N1066   1.437       .  S
C1060      C1061   1.410       .  A
C1060      H1065   1.082       .  S
C1061      C1062   1.420       .  A
C1062      N1063   1.433       .  S
N1063      H1067   1.046       .  S
N1063      H1068   1.046       .  S
N1066      H1069   1.045       .  S
N1066      H1070   1.046       .  S
C1071      C1072   1.409       .  A
C1071      C1076   1.410       .  A
C1071      H1078   1.084       .  S
C1072      C1073   1.414       .  A
C1073      C1074   1.416       .  A
C1073      N1080   1.437       .  S
C1074      C1075   1.412       .  A
C1074      H1079   1.083       .  S
C1075      C1076   1.415       .  A
C1076      N1077   1.432       .  S
N1077      H1081   1.046       .  S
N1077      H1082   1.043       .  S
N1080      H1083   1.045       .  S
N1080      H1084   1.046       .  S
C1085      C1086   1.406       .  A
C1085      C1090   1.395       .  A
C1085      H1092   1.084       .  S
C1086      C1087   1.420       .  A
C1087      C1088   1.412       .  A
C1087      N1094   1.432       .  S
C1088      C1089   1.407       .  A
C1088      H1093   1.084       .  S
C1089      C1090   1.418       .  A
C1090      N1091   1.434       .  S
N1091      H1095   1.044       .  S
N1091      H1096   1.046       .  S
N1094      H1097   1.046       .  S
N1094      H1098   1.045       .  S
C1099      C1100   1.402       .  A
C1099      C1104   1.403       .  A
C1099      H1106   1.084       .  S
C1100      C1101   1.411       .  A
C1101      C1102   1.408       .  A
C1101      N1108   1.437       .  S
C1102      C1103   1.413       .  A
C1102      H1107   1.083       .  S
C1103      C1104   1.422       .  A
C1104      N1105   1.431       .  S
N1105      H1109   1.045       .  S
N1105      H1110   1.045       .  S
N1108      H1111   1.045       .  S
N1108      H1112   1.042       .  S
C1113      C1114   1.399       .  A
C1113      C1118   1.393       .  A
C1113      H1120   1.080       .  S
C1114      C1115   1.412       .  A
C1115      C1116   1.417       .  A
C1115      N1122   1.437       .  S
C1116      C1117   1.409       .  A
C1116      H1121   1.083       .  S
C1117      C1118   1.413       .  A
C1118      N1119   1.434       .  S
N1119      H1123   1.046       .  S
N1119      H1124   1.046       .  S
N1122      H1125   1.041       .  S
N1122      H1126   1.046       .  S
C1127      C1128   1.406       .  A
C1127      C1132   1.408       .  A
C1127      H1134   1.084       .  S
C1128      C1129   1.412       .  A
C1129      C1130   1.407       .  A
C1129      N1136   1.437       .  S
C1130      C1131   1.411       .  A
C1130      H1135   1.083       .  S
C1131      C1132   1.410       .  A
C1132      N1133   1.425       .  S
N1133      H1137   1.045       .  S
N1133      H1138   1.042       .  S
N1136      H1139   1.045       .  S
N1136      H1140   1.046       .  S
C1141      C1142   1.402       .  A
C1141      C1146   1.398       .  A
C1141      H1148   1.083       .  S
C1142      C1143   1.421       .  A
C1143      C1144   1.407       .  A
C1143      N1150   1.433       .  S
C1144      C1145   1.408       .  A
C1144      H1149   1.082       .  S
C1145      C1146   1.428       .  A
C1146      N1147   1.433       .  S
N1147      H1151   1.046       .  S
N1147      H1152   1.044       .  S
N1150      H1153   1.045       .  S
N1150      H1154   1.042       .  S
C1155      C1156   1.409       .  A
C1155      C1160   1.402       .  A
C1155      H1162   1.084       .  S
C1156      C1157   1.415       .  A
C1157      C1158   1.400       .  A
C1157      N1164   1.434       .  S
C1158      C1159   1.413       .  A
C1158      H1163   1.083       .  S
C1159      C1160   1.418       .  A
C1160      N1161   1.429       .  S
N1161      H1165   1.046       .  S
N1161      H1166   1.038       .  S
N1164      H1167   1.045       .  S
N1164      H1168   1.041       .  S
C1169      C1170   1.407       .  A
C1169      C1174   1.413       .  A
C1169      H1176   1.084       .  S
C1170      C1171   1.411       .  A
C1171      C1172   1.396       .  A
C1171      N1178   1.432       .  S
C1172      C1173   1.403       .  A
C1172      H1177   1.084       .  S
C1173      C1174   1.410       .  A
C1174      N1175   1.429       .  S
N1175      H1179   1.045       .  S
N1175      H1180   1.045       .  S
N1178      H1181   1.045       .  S
N1178      H1182   1.046       .  S
C1183      C1184   1.404       .  A
C1183      C1188   1.401       .  A
C1183      H1190   1.084       .  S
C1184      C1185   1.409       .  A
C1185      C1186   1.414       .  A
C1185      N1192   1.424       .  S
C1186      C1187   1.407       .  A
C1186      H1191   1.084       .  S
C1187      C1188   1.417       .  A
C1188      N1189   1.432       .  S
N1189      H1193   1.045       .  S
N1189      H1194   1.046       .  S
N1192      H1195   1.045       .  S
N1192      H1196   1.045       .  S
C1197      C1198   1.412       .  A
C1197      C1202   1.417       .  A
C1197      H1204   1.084       .  S
C1198      C1199   1.416       .  A
C1199      C1200   1.399       .  A
C1199      N1206   1.432       .  S
C1200      C1201   1.404       .  A
C1200      H1205   1.084       .  S
C1201      C1202   1.411       .  A
C1202      N1203   1.431       .  S
N1203      H1207   1.045       .  S
N1203      H1208   1.042       .  S
N1206      H1209   1.046       .  S
N1206      H1210   1.046       .  S
C1211      C1212   1.407       .  A
C1211      C1216   1.411       .  A
C1211      H1218   1.083       .  S
C1212      C1213   1.417       .  A
C1213      C1214   1.401       .  A
C1213      N1220   1.434       .  S
C1214      C1215   1.408       .  A
C1214      H1219   1.083       .  S
C1215      C1216   1.417       .  A
C1216      N1217   1.436       .  S
N1217      H1221   1.045       .  S
N1217      H1222   1.046       .  S
N1220      H1223   1.046       .  S
N1220      H1224   1.041       .  S
C1225      C1226   1.410       .  A
C1225      C1230   1.420       .  A
C1225      H1232   1.083       .  S
C1226      C1227   1.416       .  A
C1227      C1228   1.399       .  A
C1227      N1234   1.432       .  S
C1228      C1229   1.402       .  A
C1228      H1233   1.084       .  S
C1229      C1230   1.414       .  A
C1230      N1231   1.436       .  S
N1231      H1235   1.046       .  S
N1231      H1236   1.045       .  S
N1234      H1237   1.046       .  S
N1234      H1238   1.045       .  S
C1239      C1240   1.401       .  A
C1239      C1244   1.412       .  A
C1239      H1246   1.084       .  S
C1240      C1241   1.422       .  A
C1241      C1242   1.389       .  A
C1241      N1248   1.427       .  S
C1242      C1243   1.396       .  A
C1242      H1247   1.084       .  S
C1243      C1244   1.420       .  A
C1244      N1245   1.432       .  S
N1245      H1249   1.045       .  S
N1245      H1250   1.045       .  S
N1248      H1251   1.048       .  S
N1248      H1252   1.037       .  S
C1253      C1254   1.409       .  A
C1253      C1258   1.416       .  A
C1253      H1260   1.083       .  S
C1254      C1255   1.433       .  A
C1255      C1256   1.386       .  A
C1255      N1262   1.436       .  S
C1256      C1257   1.389       .  A
C1256      H1261   1.085       .  S
C1257      C1258   1.408       .  A
C1258      N1259   1.436       .  S
N1259      H1263   1.045       .  S
N1259      H1264   1.046       .  S
N1262      H1265   1.052       .  S
N1262      H1266   1.025       .  S
C1267      C1268   1.404       .  A
C1267      C1272   1.409       .  A
C1267      H1274   1.084       .  S
C1268      C1269   1.413       .  A
C1269      C1270   1.420       .  A
C1269      N1276   1.436       .  S
C1270      C1271   1.414       .  A
C1270      H1275   1.082       .  S
C1271      C1272   1.419       .  A
C1272      N1273   1.432       .  S
N1273      H1277   1.045       .  S
N1273      H1278   1.044       .  S
N1276      H1279   1.045       .  S
N1276      H1280   1.045       .  S
C1281      C1282   1.406       .  A
C1281      C1286   1.405       .  A
C1281      H1288   1.084       .  S
C1282      C1283   1.414       .  A
C1283      C1284   1.417       .  A
C1283      N1290   1.431       .  S
C1284      C1285   1.408       .  A
C1284      H1289   1.083       .  S
C1285      C1286   1.417       .  A
C1286      N1287   1.439       .  S
N1287      H1291   1.046       .  S
N1287      H1292   1.046       .  S
N1290      H1293   1.045       .  S
N1290      H1294   1.045       .  S
C1295      C1296   1.405       .  A
C1295      C1300   1.406       .  A
C1295      H1302   1.083       .  S
C1296      C1297   1.425       .  A
C1297      C1298   1.411       .  A
C1297      N1304   1.432       .  S
C1298      C1299   1.398       .  A
C1298      H1303   1.084       .  S
C1299      C1300   1.412       .  A
C1300      N1301   1.433       .  S
N1301      H1305   1.045       .  S
N1301      H1306   1.045       .  S
N1304      H1307   1.045       .  S
N1304      H1308   1.045       .  S
C1309      C1310   1.402       .  A
C1309      C1314   1.409       .  A
C1309      H1316   1.084       .  S
C1310      C1311   1.405       .  A
C1311      C1312   1.394       .  A
C1311      N1318   1.434       .  S
C1312      C1313   1.402       .  A
C1312      H1317   1.085       .  S
C1313      C1314   1.411       .  A
C1314      N1315   1.432       .  S
N1315      H1319   1.046       .  S
N1315      H1320   1.045       .  S
N1318      H1321   1.045       .  S
N1318      H1322   1.045       .  S
C1323      C1324   1.404       .  A
C1323      C1328   1.396       .  A
C1323      H1330   1.084       .  S
C1324      C1325   1.412       .  A
C1325      C1326   1.413       .  A
C1325      N1332   1.432       .  S
C1326      C1327   1.405       .  A
C1326      H1331   1.084       .  S
C1327      C1328   1.413       .  A
C1328      N1329   1.433       .  S
N1329      H1333   1.045       .  S
N1329      H1334   1.045       .  S
N1332      H1335   1.046       .  S
N1332      H1336   1.045       .  S
C1337      C1338   1.401       .  A
C1337      C1342   1.400       .  A
C1337      H1344   1.084       .  S
C1338      C1339   1.424       .  A
C1339      C1340   1.410       .  A
C1339      N1346   1.432       .  S
C1340      C1341   1.399       .  A
C1340      H1345   1.084       .  S
C1341      C1342   1.417       .  A
C1342      N1343   1.429       .  S
N1343      H1347   1.040       .  S
N1343      H1348   1.044       .  S
N1346      H1349   1.046       .  S
N1346      H1350   1.046       .  S
