geometry optimzed in LAMMPS
_audit_creation_date              2020-11-30 
_audit_creation_method            'lammps2cif' 
_symmetry_space_group_name_H-M    'P1' 
_symmetry_Int_Tables_number       1 
_symmetry_cell_setting            triclinic 
loop_ 
_symmetry_equiv_pos_as_xyz 
  x,y,z 
_cell_length_a                    38.011262716585115 
_cell_length_b                    38.133718174852994 
_cell_length_c                    38.01712783670909 
_cell_angle_alpha                 89.57427424436324 
_cell_angle_beta                  90.10268271527934 
_cell_angle_gamma                 89.82516218574268 
loop_ 
_atom_site_label 
_atom_site_type_symbol 
_atom_site_fract_x 
_atom_site_fract_y 
_atom_site_fract_z 
_atom_site_charge 
O1          O  0.71794613  0.71472760  0.20386176    -0.85990
C2          C  0.73504838  0.70269323  0.30854998     0.90040
Mg3        Mg  0.75960953  0.72140621  0.16752030     1.58150
O4          O  0.70362804  0.78559803  0.28376450    -0.85720
O5          O  0.67129932  0.74426802  0.22053782    -0.73050
C6          C  0.86491062  0.83492662  0.24535281     0.95090
O7          O  0.78248536  0.67691408  0.24355651    -0.72870
O8          O  0.86515729  0.81212232  0.22123107    -0.80370
Mg9        Mg  0.72250550  0.67202154  0.24032428     1.57960
C10         C  0.74440478  0.87531233  0.32175139     0.95010
O11         O  0.66298775  0.66189361  0.23646224    -0.78640
H12         H  0.66702814  0.81548048  0.26024526    -0.03980
C13         C  0.80766935  0.77568443  0.29865309     0.89950
O14         O  0.75166644  0.78111657  0.16887662    -0.73150
O15         O  0.71671732  0.70833138  0.28213994    -0.85910
O16         O  0.72989271  0.84716230  0.33250630    -0.78720
C17         C  0.67405261  0.75336266  0.36787734     0.95130
C18         C  0.63526466  0.67081570  0.25285282     0.94980
Mg19       Mg  0.77726957  0.83587422  0.25557167     1.57950
O20         O  0.83700105  0.84410867  0.26128977    -0.78640
O21         O  0.71716047  0.83141828  0.25132069    -0.72880
O22         O  0.66534200  0.73611994  0.34075527    -0.78720
O23         O  0.73160272  0.63274348  0.19756829    -0.80430
O24         O  0.83387399  0.77266342  0.15426068    -0.78750
C25         C  0.69470119  0.81106655  0.26539084     0.89410
O26         O  0.78286562  0.79984070  0.21359223    -0.85900
O27         O  0.78084409  0.79296982  0.29171286    -0.86000
O28         O  0.82703708  0.76268082  0.27477451    -0.73060
Mg29       Mg  0.67085393  0.74083690  0.28079016     1.57970
O30         O  0.69583271  0.77849017  0.36690563    -0.80430
H31         H  0.68380029  0.73561932  0.16944920    -0.04160
O32         O  0.79545236  0.72255322  0.21069625    -0.85700
H33         H  0.83243912  0.69258905  0.23344933    -0.03980
H34         H  0.75688630  0.83250881  0.18128162    -0.04160
C35         C  0.80468002  0.69706149  0.22885891     0.89390
C36         C  0.69067402  0.73116873  0.19676993     0.89980
C37         C  0.76401774  0.80569971  0.18758981     0.90020
H38         H  0.81418367  0.77047574  0.32592969    -0.04140
O39         O  0.74677763  0.72748241  0.32739748    -0.73160
Mg40       Mg  0.82834351  0.76703380  0.21445703     1.58000
H41         H  0.74212199  0.67595598  0.31521794    -0.04150
C42         C  0.75394818  0.63337604  0.17277397     0.95010
O43         O  0.80201634  0.73152060  0.12762043    -0.80390
C44         C  0.82431550  0.75626563  0.12683017     0.95070
O45         O  0.63469112  0.69518139  0.27535097    -0.80380
Mg46       Mg  0.73872090  0.78732271  0.32756962     1.58180
O47         O  0.76793450  0.66163110  0.16152913    -0.78710
O48         O  0.76796586  0.87557079  0.29810130    -0.80410
O49         O  0.71396181  0.20100748  0.71767404    -0.85990
C50         C  0.70366996  0.30578059  0.72818486     0.90040
Mg51       Mg  0.71951337  0.16754754  0.76206737     1.58150
O52         O  0.78709977  0.28004608  0.69962402    -0.85720
O53         O  0.74541236  0.21504949  0.67117946    -0.73050
C54         C  0.83588578  0.24791805  0.86364785     0.95090
O55         O  0.67643702  0.24479466  0.77862024    -0.72870
O56         O  0.81193045  0.22482112  0.86482161    -0.80370
Mg57       Mg  0.67164158  0.23781786  0.71882196     1.57960
C58         C  0.87787637  0.32043381  0.74002490     0.95010
O59         O  0.66258820  0.22993569  0.65903325    -0.78640
H60         H  0.81739444  0.25514841  0.66473875    -0.03980
C61         C  0.77719226  0.29993614  0.80292313     0.89950
O62         O  0.77968256  0.16781315  0.75445938    -0.73150
O63         O  0.70886027  0.27880191  0.71095502    -0.85910
O64         O  0.84974046  0.33066357  0.72461486    -0.78720
C65         C  0.75471308  0.36244544  0.66508662     0.95130
C66         C  0.67264509  0.24406661  0.63028879     0.94980
Mg67       Mg  0.83707548  0.25504657  0.77534745     1.57950
O68         O  0.84559123  0.26259707  0.83508576    -0.78640
O69         O  0.83286159  0.24847234  0.71549958    -0.72880
O70         O  0.73772734  0.33484946  0.65721231    -0.78720
O71         O  0.63090258  0.19638064  0.73092139    -0.80430
O72         O  0.77129448  0.15699572  0.83655982    -0.78750
C73         C  0.81269977  0.26145451  0.69204771     0.89410
O74         O  0.79986550  0.21371611  0.78273012    -0.85900
O75         O  0.79451450  0.29166395  0.77664719    -0.86000
O76         O  0.76354728  0.27714798  0.82332025    -0.73060
Mg77       Mg  0.74238797  0.27501552  0.66618167     1.57970
O78         O  0.77992243  0.36242460  0.68706589    -0.80430
H79         H  0.73593926  0.16493220  0.68666019    -0.04160
O80         O  0.72184760  0.21268737  0.79460581    -0.85700
H81         H  0.69205939  0.23836640  0.82936188    -0.03980
H82         H  0.83157237  0.17968555  0.75840919    -0.04160
C83         C  0.69653757  0.23173192  0.80209953     0.89390
C84         C  0.73138052  0.19248366  0.69154725     0.89980
C85         C  0.80490798  0.18678885  0.76535725     0.90020
H86         H  0.77249065  0.32742474  0.80800495    -0.04140
O87         O  0.72879482  0.32469234  0.73936396    -0.73160
Mg88       Mg  0.76664548  0.21705811  0.82781905     1.58000
H89         H  0.67694811  0.31292223  0.73485154    -0.04150
C90         C  0.63083263  0.17398312  0.75588806     0.95010
O91         O  0.72849197  0.13005971  0.80710937    -0.80390
C92         C  0.75388824  0.12960237  0.82885975     0.95070
O93         O  0.69720789  0.26655173  0.62890687    -0.80380
Mg94       Mg  0.78897946  0.32525835  0.73229957     1.58180
O95         O  0.65904332  0.16347572  0.77089134    -0.78710
O96         O  0.87773102  0.29706225  0.76409019    -0.80410
O97         O  0.79329571  0.78297927  0.71272370    -0.85990
C98         C  0.68934056  0.76587394  0.69352757     0.90040
Mg99       Mg  0.83129976  0.74259909  0.71960339     1.58150
O100        O  0.70801248  0.79607843  0.77806208    -0.85720
O101        O  0.77325657  0.82887374  0.74109375    -0.73050
C102        C  0.75072604  0.63549502  0.82867218     0.95090
O103        O  0.75697752  0.71940980  0.67195344    -0.72870
O104        O  0.77641176  0.63561457  0.80742500    -0.80370
Mg105      Mg  0.75954088  0.77933235  0.66799624     1.57960
C106        C  0.66869429  0.75215576  0.86445384     0.95010
O107        O  0.76444623  0.83850211  0.66032434    -0.78640
H108        H  0.72943180  0.83222636  0.80930033    -0.03980
C109        C  0.69885667  0.69155719  0.76604302     0.89950
O110        O  0.82784604  0.74910959  0.77941126    -0.73150
O111        O  0.71502420  0.78404451  0.70147463    -0.85910
O112        O  0.65818368  0.76669320  0.83610009    -0.78720
C113        C  0.62470066  0.82514680  0.74265208     0.95130
C114        C  0.74752752  0.86612452  0.66806036     0.94980
Mg115      Mg  0.73768006  0.72216891  0.82804386     1.57950
O116        O  0.73332134  0.66289228  0.83619210    -0.78640
O117        O  0.74012807  0.78211504  0.82419632    -0.72880
O118        O  0.65253579  0.83518768  0.72686597    -0.78720
O119        O  0.80431749  0.77192443  0.63056325    -0.80430
O120        O  0.84490276  0.66756867  0.76985109    -0.78750
C121        C  0.72542406  0.80465806  0.80417995     0.89410
O122        O  0.78208807  0.71776639  0.79457345    -0.85900
O123        O  0.70381946  0.71851632  0.78334433    -0.86000
O124        O  0.72415072  0.67264453  0.75506080    -0.73060
Mg125      Mg  0.71310503  0.82939902  0.73400192     1.57970
O126        O  0.62503933  0.80131148  0.76622538    -0.80430
H127        H  0.82513994  0.81701295  0.73667604    -0.04160
O128        O  0.78933871  0.70559751  0.71800429    -0.85700
H129        H  0.76784639  0.66935524  0.68691954    -0.03980
H130        H  0.81229799  0.74196352  0.83001485    -0.04160
C131        C  0.77183869  0.69694222  0.69195504     0.89390
C132        C  0.79842852  0.80991700  0.72998139     0.89980
C133        C  0.80765948  0.73604262  0.80259699     0.90020
H134        H  0.67219606  0.68435942  0.75925171    -0.04140
O135        O  0.66914777  0.75288343  0.71676619    -0.73160
Mg136      Mg  0.78438074  0.67242483  0.76221805     1.58000
H137        H  0.68459712  0.75997773  0.66612087    -0.04150
C138        C  0.82909896  0.74960296  0.63176564     0.95010
O139        O  0.87230334  0.70116625  0.73019387    -0.80390
C140        C  0.87274322  0.67789372  0.75428459     0.95070
O141        O  0.72148048  0.86623079  0.68888130    -0.80380
Mg142      Mg  0.66589198  0.75931706  0.77661160     1.58180
O143        O  0.83955811  0.73536576  0.66027449    -0.78710
O144        O  0.69296774  0.72929171  0.86532586    -0.80410
C145        C  0.49341569  0.38573207  0.21550468     0.05480
C146        C  0.52545242  0.37143783  0.22567786    -0.10670
C147        C  0.53157844  0.36196185  0.26052300     0.02980
C148        C  0.50489172  0.36620587  0.28580288    -0.09190
C149        C  0.47184228  0.38046343  0.27559723     0.05470
C150        C  0.46669449  0.39050341  0.24020218    -0.08610
H151        H  0.54620068  0.36828745  0.20627381     0.11070
H152        H  0.51027783  0.35912109  0.31293589     0.08600
H153        H  0.44195846  0.40218286  0.23186130     0.08440
C154        C  0.36365364  0.26121451  0.53243928     0.05480
C155        C  0.36660957  0.28642435  0.50539576    -0.10670
C156        C  0.37998068  0.27652320  0.47207612     0.02980
C157        C  0.39034172  0.24143752  0.46696868    -0.09190
C158        C  0.38704614  0.21678017  0.49408211     0.05470
C159        C  0.37371403  0.22667202  0.52649100    -0.08610
H160        H  0.35900746  0.31321468  0.51073760     0.11070
H161        H  0.40123021  0.23329579  0.44193574     0.08600
H162        H  0.37157146  0.20730288  0.54752212     0.08440
C163        C  0.40828146  0.37679682  0.35640669     0.05480
C164        C  0.40423353  0.35383520  0.38517800    -0.10670
C165        C  0.37624870  0.35780392  0.40910982     0.02980
C166        C  0.35257722  0.38574901  0.40431846    -0.09190
C167        C  0.35584934  0.40916277  0.37564588     0.05470
C168        C  0.38392515  0.40454065  0.35206476    -0.08610
H169        H  0.42362232  0.33334209  0.38911968     0.11070
H170        H  0.33203390  0.38921528  0.42360202     0.08600
H171        H  0.38680860  0.42329867  0.33083884     0.08440
C172        C  0.21405104  0.49301440  0.38266866     0.05480
C173        C  0.23892714  0.46633212  0.38759823    -0.10670
C174        C  0.27458813  0.47203930  0.37947088     0.02980
C175        C  0.28500614  0.50551587  0.36704205    -0.09190
C176        C  0.25979521  0.53228519  0.36261957     0.05470
C177        C  0.22452074  0.52575109  0.37018274    -0.08610
H178        H  0.23047179  0.44106262  0.39772228     0.11070
H179        H  0.31238591  0.51115029  0.36159477     0.08600
H180        H  0.20510790  0.54649265  0.36680378     0.08440
O181        O  0.93447143  0.48118884  0.49344116    -0.85990
C182        C  0.99928799  0.49216786  0.57685658     0.90040
Mg183      Mg  0.94714781  0.44878132  0.44987762     1.58150
O184        O  0.99625562  0.56451871  0.52027595    -0.85720
O185        O  0.92074401  0.53619942  0.50330982    -0.73050
C186        C  0.11183352  0.49088243  0.41234609     0.95090
O187        O  0.98810645  0.42585615  0.52740293    -0.72870
O188        O  0.09073156  0.46546332  0.40817771    -0.80370
Mg189      Mg  0.94002302  0.45823951  0.54472041     1.57960
C190        C  0.08309753  0.61532864  0.48683243     0.95010
O191        O  0.89030539  0.48723683  0.56408061    -0.78640
H192        H  0.96823362  0.60185568  0.49573968    -0.03980
C193        C  0.07763823  0.49761371  0.50563380     0.89950
O194        O  0.96553898  0.49694398  0.41835871    -0.73150
O195        O  0.97334250  0.50036743  0.55880671    -0.85910
O196        O  0.06798726  0.60604722  0.51528345    -0.78720
C197        C  0.00944574  0.58416904  0.61196873     0.95130
C198        C  0.88177504  0.51565073  0.57939565     0.94980
Mg199      Mg  0.05369788  0.54740040  0.44769117     1.57950
O200        O  0.10310811  0.51908057  0.42783357    -0.78640
O201        O  0.00580941  0.57955306  0.46528488    -0.72880
O202        O  0.98048980  0.57020905  0.60270540    -0.78720
O203        O  0.90703365  0.41100422  0.53156959    -0.80430
O204        O  0.01379087  0.43428962  0.38962708    -0.78750
C205        C  0.98950614  0.58301974  0.49421873     0.89410
O206        O  0.02059631  0.50486556  0.43372074    -0.85900
O207        O  0.05998920  0.52415209  0.49879551    -0.86000
O208        O  0.07382544  0.46920317  0.48877352    -0.73060
Mg209      Mg  0.95233070  0.55214407  0.55228507     1.57970
O210        O  0.03540255  0.58744589  0.59124149    -0.80430
H211        H  0.89875603  0.50717202  0.46453349    -0.04160
O212        O  0.99824706  0.44049974  0.47233853    -0.85700
H213        H  0.02616077  0.40349749  0.49754377    -0.03980
H214        H  0.99690224  0.53439124  0.39692030    -0.04160
C215        C  0.00481632  0.42227871  0.49867205     0.89390
C216        C  0.91699462  0.50779113  0.48641493     0.89980
C217        C  0.99480969  0.51270779  0.41531701     0.90020
H218        H  0.09605294  0.49827542  0.52736166    -0.04140
O219        O  0.02868729  0.50766861  0.57360572    -0.73160
Mg220      Mg  0.04201489  0.45314852  0.44001849     1.58000
H221        H  0.99722601  0.47033000  0.59506511    -0.04150
C222        C  0.91164438  0.39014504  0.50610947     0.95010
O223        O  0.95905035  0.41675840  0.40136012    -0.80390
C224        C  0.98498527  0.41983481  0.38054743     0.95070
O225        O  0.90329334  0.54064601  0.58382838    -0.80380
Mg226      Mg  0.04735824  0.55607697  0.54258471     1.58180
O227        O  0.92711336  0.39917310  0.47780469    -0.78710
O228        O  0.08662084  0.59486166  0.46086285    -0.80410
O229        O  0.54797187  0.96062677  0.47135726    -0.85990
C230        C  0.44319581  0.94819163  0.48576021     0.90040
Mg231      Mg  0.58342635  0.96656731  0.51387134     1.58150
O232        O  0.46751446  0.03242727  0.45798507    -0.85720
O233        O  0.53196355  0.99218070  0.42552277    -0.73050
C234        C  0.50445464  0.07807945  0.62072983     0.95090
O235        O  0.50730905  0.92236880  0.53433468    -0.72870
O236        O  0.52875812  0.05522656  0.62075789    -0.80370
Mg237      Mg  0.51158861  0.91819292  0.47436003     1.57960
C238        C  0.42657031  0.11947143  0.50235715     0.95010
O239        O  0.51600461  0.90902419  0.41450883    -0.78640
H240        H  0.48997881  0.06413259  0.42241462    -0.03980
C241        C  0.45167372  0.01938816  0.56212768     0.89950
O242        O  0.58129985  0.02648492  0.50641515    -0.73150
O243        O  0.46976476  0.95467912  0.46814810    -0.85910
O244        O  0.41686769  0.09192296  0.48645268    -0.78720
C245        C  0.38469314  0.00191056  0.42528505     0.95130
C246        C  0.50027699  0.91932502  0.38665542     0.94980
Mg247      Mg  0.49384354  0.08046373  0.53326844     1.57950
O248        O  0.48818100  0.08735068  0.59294614    -0.78640
O249        O  0.49825838  0.07846427  0.47308353    -0.72880
O250        O  0.41210875  0.98520715  0.41605310    -0.78720
O251        O  0.55429239  0.87843619  0.48428983    -0.80430
O252        O  0.59547864  0.01775377  0.58754668    -0.78750
C253        C  0.48497784  0.05860537  0.44992074     0.89410
O254        O  0.53638522  0.04473916  0.53780658    -0.85900
O255        O  0.45876326  0.03685719  0.53548423    -0.86000
O256        O  0.47552693  0.00630716  0.58176562    -0.73060
Mg257      Mg  0.47184023  0.98906871  0.42358402     1.57970
O258        O  0.38487947  0.02511712  0.44899558    -0.80430
H259        H  0.58284008  0.98241915  0.43855799    -0.04160
O260        O  0.53980212  0.96746275  0.54893183    -0.85700
H261        H  0.51609672  0.93704416  0.58478347    -0.03980
H262        H  0.56813160  0.07777396  0.51195266    -0.04160
C263        C  0.52139905  0.94199303  0.55722576     0.89390
C264        C  0.55544034  0.97798455  0.44477107     0.89980
C265        C  0.56222950  0.05087170  0.51892113     0.90020
H266        H  0.42439589  0.01418149  0.56826699    -0.04140
O267        O  0.42416171  0.97237500  0.49852993    -0.73160
Mg268      Mg  0.53577334  0.01109413  0.58280777     1.58000
H269        H  0.43668222  0.92114874  0.49148177    -0.04150
C270        C  0.57818449  0.87843604  0.50772918     0.95010
O271        O  0.62302080  0.97637741  0.55678559    -0.80390
C272        C  0.62329946  0.00189319  0.57810511     0.95070
O273        O  0.47861681  0.94469561  0.38616264    -0.80380
Mg274      Mg  0.42334793  0.03227366  0.49276385     1.58180
O275        O  0.58920053  0.90643751  0.52216504    -0.78710
O276        O  0.45036875  0.11933983  0.52576159    -0.80410
C277        C  0.62635916  0.65593955  0.60621416     0.05480
C278        C  0.60324843  0.65207916  0.63473549    -0.10670
C279        C  0.60655747  0.62381409  0.65866488     0.02980
C280        C  0.63405457  0.59953995  0.65397487    -0.09190
C281        C  0.65768756  0.60286388  0.62560457     0.05470
C282        C  0.65370373  0.63125544  0.60216317    -0.08610
H283        H  0.58322046  0.67188840  0.63848022     0.11070
H284        H  0.63720131  0.57853968  0.67304287     0.08600
H285        H  0.67268735  0.63407646  0.58122738     0.08440
C286        C  0.51086963  0.61705229  0.78259201     0.05480
C287        C  0.53601692  0.61932480  0.75556205    -0.10670
C288        C  0.52558528  0.63032580  0.72139867     0.02980
C289        C  0.49004337  0.63917127  0.71537471    -0.09190
C290        C  0.46535735  0.63633868  0.74243125     0.05470
C291        C  0.47580287  0.62520556  0.77570633    -0.08610
H292        H  0.56325130  0.61325825  0.76147539     0.11070
H293        H  0.48157314  0.64845550  0.68964841     0.08600
H294        H  0.45647827  0.62349508  0.79670564     0.08440
C295        C  0.61579794  0.78096037  0.51202516     0.05480
C296        C  0.62474441  0.77537167  0.47705346    -0.10670
C297        C  0.63784595  0.74315543  0.46642147     0.02980
C298        C  0.64187041  0.71580768  0.49075554    -0.09190
C299        C  0.63225376  0.72050505  0.52617829     0.05470
C300        C  0.61926949  0.75364176  0.53685297    -0.08610
H301        H  0.62211840  0.79661081  0.45795899     0.11070
H302        H  0.65260126  0.69093247  0.48211906     0.08600
H303        H  0.61264445  0.75861105  0.56407184     0.08440
C304        C  0.78119199  0.50855160  0.61169107     0.05480
C305        C  0.77553014  0.47313451  0.61850590    -0.10670
C306        C  0.74306041  0.46150824  0.63053466     0.02980
C307        C  0.71550223  0.48544822  0.63549920    -0.09190
C308        C  0.72034786  0.52140567  0.62804127     0.05470
C309        C  0.75380099  0.53288332  0.61632532    -0.08610
H310        H  0.79694178  0.45448160  0.61522890     0.11070
H311        H  0.69042840  0.47613120  0.64537797     0.08600
H312        H  0.75907387  0.56039303  0.61161009     0.08440
O313        O  0.54103693  0.53507480  0.04595734    -0.85990
C314        C  0.55754432  0.52317663  0.94261401     0.90040
Mg315      Mg  0.53639022  0.49089236  0.07995178     1.58150
O316        O  0.47217514  0.54900388  0.96375222    -0.85720
O317        O  0.50927487  0.58072948  0.02988834    -0.73050
C318        C  0.42592100  0.38384585  0.99943377     0.95090
O319        O  0.58300744  0.47544348  0.00506119    -0.72870
O320        O  0.45032273  0.38344560  0.02228080    -0.80370
Mg321      Mg  0.58531755  0.53545046  0.01169318     1.57960
C322        C  0.38566001  0.50379407  0.92121101     0.95010
O323        O  0.59155683  0.59573068  0.01931582    -0.78640
H324        H  0.43963669  0.58276507  0.98730752    -0.03980
C325        C  0.48534852  0.44467185  0.94677984     0.89950
O326        O  0.47611250  0.49620987  0.07812181    -0.73150
O327        O  0.55040862  0.54133981  0.96855409    -0.85910
O328        O  0.41343476  0.51988999  0.91162980    -0.78720
C329        C  0.50659804  0.58187971  0.88141296     0.95130
C330        C  0.58140445  0.62396641  0.00414049     0.94980
Mg331      Mg  0.42389430  0.47175455  0.98922050     1.57950
O332        O  0.41611098  0.41181135  0.98366177    -0.78640
O333        O  0.42633423  0.53170033  0.99431894    -0.72880
O334        O  0.52172877  0.59203025  0.90950814    -0.78720
O335        O  0.62417648  0.52558380  0.05541160    -0.80430
O336        O  0.48823570  0.41464967  0.08978724    -0.78750
C337        C  0.44574569  0.55569251  0.98151658     0.89410
O338        O  0.45910723  0.46600202  0.03214964    -0.85900
O339        O  0.46801002  0.47100322  0.95456108    -0.86000
O340        O  0.49871324  0.42466673  0.97012264    -0.73060
Mg341      Mg  0.51490770  0.58462887  0.96978510     1.57970
O342        O  0.48290856  0.55843738  0.88128360    -0.80430
H343        H  0.51661176  0.56579302  0.08075285    -0.04160
O344        O  0.53697707  0.45759499  0.03508607    -0.85700
H345        H  0.56918778  0.42428797  0.01042583    -0.03980
H346        H  0.42493990  0.48908205  0.06465924    -0.04160
C347        C  0.56329471  0.45121873  0.01701569     0.89390
C348        C  0.52256989  0.56079407  0.05341340     0.89980
C349        C  0.45217551  0.48349163  0.05860606     0.90020
H350        H  0.49030458  0.43921819  0.91932798    -0.04140
O351        O  0.53384116  0.50969562  0.92335219    -0.73160
Mg352      Mg  0.49411766  0.42211038  0.03019404     1.58000
H353        H  0.58484445  0.51749250  0.93693302    -0.04150
C354        C  0.62441342  0.49995724  0.07695860     0.95010
O355        O  0.52860515  0.44630704  0.11779591    -0.80390
C356        C  0.50433098  0.42356020  0.11762282     0.95070
O357        O  0.55816731  0.62418162  0.97998036    -0.80380
Mg358      Mg  0.47371377  0.51447110  0.91981654     1.58180
O359        O  0.59653755  0.48378466  0.08587622    -0.78710
O360        O  0.38560808  0.48049384  0.94522458    -0.80410
O361        O  0.47516383  0.50246635  0.56813229    -0.85990
C362        C  0.49241435  0.42112616  0.50336332     0.90040
Mg363      Mg  0.44088603  0.54436100  0.55356898     1.58150
O364        O  0.56215280  0.48032125  0.50704065    -0.85720
O365        O  0.53096469  0.49566972  0.58200508    -0.73050
C366        C  0.48477800  0.58381133  0.38829195     0.95090
O367        O  0.42289568  0.46633993  0.51357883    -0.72870
O368        O  0.45887692  0.58640283  0.40922540    -0.80370
Mg369      Mg  0.45515684  0.45041900  0.56260949     1.57960
C370        C  0.61448601  0.51529274  0.42018602     0.95010
O371        O  0.48491712  0.43235641  0.61344723    -0.78640
H372        H  0.59797641  0.50614601  0.53537127    -0.03980
C373        C  0.49683203  0.49157087  0.42386739     0.89950
O374        O  0.48845935  0.57714368  0.53540220    -0.73150
O375        O  0.49906132  0.43875914  0.52981076    -0.85910
O376        O  0.60599156  0.48676043  0.43566325    -0.78720
C377        C  0.58608976  0.38934893  0.49478529     0.95130
C378        C  0.51447013  0.41878469  0.62228962     0.94980
Mg379      Mg  0.54319171  0.55165601  0.44785037     1.57950
O380        O  0.51412981  0.57019399  0.39746136    -0.78640
O381        O  0.57534895  0.53542956  0.49662420    -0.72880
O382        O  0.57102828  0.39796558  0.52341042    -0.78720
O383        O  0.40543870  0.46143725  0.59438980    -0.80430
O384        O  0.42632748  0.60390062  0.48585232    -0.78750
C385        C  0.57950355  0.50689810  0.51367761     0.89410
O386        O  0.49894500  0.56321041  0.48035157    -0.85900
O387        O  0.52277055  0.49982323  0.44171331    -0.86000
O388        O  0.46714569  0.50659225  0.42740092    -0.73060
Mg389      Mg  0.55035323  0.44765060  0.55120421     1.57970
O390        O  0.58991489  0.41054865  0.46920331    -0.80430
H391        H  0.49925907  0.53262877  0.60356946    -0.04160
O392        O  0.43568298  0.52149583  0.50255738    -0.85700
H393        H  0.40031964  0.49497038  0.47428676    -0.03980
H394        H  0.52627103  0.60011147  0.50552841    -0.04160
C395        C  0.41866261  0.49464099  0.49609400     0.89390
C396        C  0.50134437  0.51087470  0.58557651     0.89980
C397        C  0.50519096  0.58114664  0.50667273     0.90020
H398        H  0.49916111  0.47004044  0.40563815    -0.04140
O399        O  0.50880668  0.42531813  0.47446137    -0.73160
Mg400      Mg  0.44773476  0.55433980  0.45843302     1.58000
H401        H  0.47120526  0.40230599  0.50454596    -0.04150
C402        C  0.38329111  0.48612463  0.58950416     0.95010
O403        O  0.40705588  0.59166771  0.53997804    -0.80390
C404        C  0.41072335  0.61265569  0.51413590     0.95070
O405        O  0.53986176  0.41582904  0.60078171    -0.80380
Mg406      Mg  0.55649243  0.45772500  0.45602821     1.58180
O407        O  0.39138709  0.51461704  0.57365296    -0.78710
O408        O  0.59286029  0.54054770  0.41602692    -0.80410
O409        O  0.06075458  0.97862981  0.00021586    -0.85990
C410        C  0.99151048  0.99086639  0.91940426     0.90040
Mg411      Mg  0.05091521  0.94641486  0.04524739     1.58150
O412        O  0.99873523  0.06359644  0.97418639    -0.85720
O413        O  0.07423649  0.03334097  0.98777836    -0.73050
C414        C  0.88743420  0.98942138  0.08747866     0.95090
O415        O  0.00508689  0.92372797  0.97006680    -0.72870
O416        O  0.90912346  0.96447509  0.09257292    -0.80370
Mg417      Mg  0.05212632  0.95562600  0.94969059     1.57960
C418        C  0.91519534  0.11551527  0.01306016     0.95010
O419        O  0.10105640  0.98379396  0.92799004    -0.78640
H420        H  0.02883274  0.09950707  0.99761994    -0.03980
C421        C  0.91879751  0.99694671  0.99390245     0.89950
O422        O  0.03403313  0.99474971  0.07672190    -0.73150
O423        O  0.01826424  0.99834114  0.93637331    -0.85910
O424        O  0.92847545  0.10656628  0.98362602    -0.78720
C425        C  0.98059340  0.08329331  0.88198217     0.95130
C426        C  0.10926363  0.01172339  0.91141081     0.94980
Mg427      Mg  0.94504472  0.04603714  0.05031775     1.57950
O428        O  0.89579662  0.01770071  0.07152476    -0.78640
O429        O  0.99256776  0.07739793  0.02995357    -0.72880
O430        O  0.00962769  0.06833912  0.89014785    -0.78720
O431        O  0.08563557  0.90815497  0.96186210    -0.80430
O432        O  0.98713446  0.93248199  0.10904290    -0.78750
C433        C  0.00728975  0.08119064  0.00011413     0.89410
O434        O  0.97847391  0.00309348  0.06343114    -0.85900
O435        O  0.93628296  0.02370036  0.99960510    -0.86000
O436        O  0.92336478  0.96862253  0.01129347    -0.73060
Mg437      Mg  0.04042068  0.04971687  0.93993958     1.57970
O438        O  0.95598902  0.08761304  0.90424187    -0.80430
H439        H  0.09786849  0.00479860  0.02650109    -0.04160
O440        O  0.99878986  0.93806968  0.02559614    -0.85700
H441        H  0.96933127  0.90129598  0.00272658    -0.03980
H442        H  0.00362738  0.03244201  0.09882705    -0.04160
C443        C  0.99053020  0.91996775  0.99995781     0.89390
C444        C  0.07860172  0.00520833  0.00550489     0.89980
C445        C  0.00495384  0.01074286  0.08069785     0.90020
H446        H  0.89969943  0.99736499  0.97275173    -0.04140
O447        O  0.96269490  0.00742959  0.92329446    -0.73160
Mg448      Mg  0.95667047  0.95169716  0.05929465     1.58000
H449        H  0.99239216  0.96896722  0.90149348    -0.04150
C450        C  0.08402850  0.88760691  0.98821392     0.95010
O451        O  0.04148748  0.91488061  0.09530477    -0.80390
C452        C  0.01644395  0.91804925  0.11720535     0.95070
O453        O  0.08755372  0.03661087  0.90616514    -0.80380
Mg454      Mg  0.94646277  0.05618759  0.95478844     1.58180
O455        O  0.07041200  0.89654993  0.01741756    -0.78710
O456        O  0.91229796  0.09432170  0.03879913    -0.80410
C457        C  0.78409330  0.00834005  0.38757976     0.05480
C458        C  0.77390577  0.97665227  0.37310367    -0.10670
C459        C  0.73924426  0.97121270  0.36283391     0.02980
C460        C  0.71413013  0.99807780  0.36664566    -0.09190
C461        C  0.72417938  0.03077413  0.38109114     0.05470
C462        C  0.75946017  0.03535652  0.39174741    -0.08610
H463        H  0.79316050  0.95572847  0.37022026     0.11070
H464        H  0.68722917  0.99301999  0.35889810     0.08600
H465        H  0.76774407  0.05985998  0.40343405     0.08440
C466        C  0.58960250  0.12546900  0.35833280     0.05480
C467        C  0.61379333  0.09765145  0.35457766    -0.10670
C468        C  0.64219903  0.09330855  0.37793488     0.02980
C469        C  0.64583009  0.11702366  0.40601839    -0.09190
C470        C  0.62208072  0.14502872  0.41040008     0.05470
C471        C  0.59379627  0.14870298  0.38655547    -0.08610
H472        H  0.61032370  0.07863013  0.33386925     0.11070
H473        H  0.66673404  0.11364051  0.42511935     0.08600
H474        H  0.57442780  0.16924723  0.39005786     0.08440
C475        C  0.46719439  0.13435277  0.25983180     0.05480
C476        C  0.49414411  0.13273664  0.28527841    -0.10670
C477        C  0.52842606  0.12171719  0.27556982     0.02980
C478        C  0.53464295  0.11237633  0.24030713    -0.09190
C479        C  0.50762958  0.11425629  0.21533785     0.05470
C480        C  0.47421271  0.12528265  0.22513605    -0.08610
H481        H  0.48799832  0.13942549  0.31220307     0.11070
H482        H  0.56048939  0.10334616  0.23227206     0.08600
H483        H  0.45329295  0.12638884  0.20560341     0.08440
C484        C  0.63299656  0.24069090  0.53327312     0.05480
C485        C  0.62518588  0.27579407  0.52669114    -0.10670
C486        C  0.61398745  0.28676774  0.49362624     0.02980
C487        C  0.61046200  0.26239467  0.46644877    -0.09190
C488        C  0.61858979  0.22665033  0.47225044     0.05470
C489        C  0.62989218  0.21588169  0.50624181    -0.08610
H490        H  0.62775311  0.29486129  0.54766679     0.11070
H491        H  0.60138020  0.27127801  0.44079252     0.08600
H492        H  0.63576406  0.18866687  0.51207096     0.08440
C493        C  0.26326518  0.03346717  0.63785153     0.05480
C494        C  0.29056669  0.00877905  0.64146477    -0.10670
C495        C  0.28550848  0.97348865  0.63146637     0.02980
C496        C  0.25195396  0.96350286  0.61846197    -0.09190
C497        C  0.22478195  0.98850752  0.61519713     0.05470
C498        C  0.23077147  0.02315457  0.62471683    -0.08610
H499        H  0.31572378  0.01704953  0.65200946     0.11070
H500        H  0.24648162  0.93664308  0.61137241     0.08600
H501        H  0.20968711  0.04234054  0.62218421     0.08440
C502        C  0.37466046  0.83683139  0.60086638     0.05480
C503        C  0.34747606  0.86195554  0.60011410    -0.10670
C504        C  0.34799272  0.89129140  0.62255247     0.02980
C505        C  0.37654604  0.89490799  0.64638819    -0.09190
C506        C  0.40388133  0.86958147  0.64745968     0.05470
C507        C  0.40229483  0.84094550  0.62466909    -0.08610
H508        H  0.32547943  0.85856569  0.58230163     0.11070
H509        H  0.37762351  0.91704906  0.66385577     0.08600
H510        H  0.42315658  0.82143608  0.62529939     0.08440
C511        C  0.52831167  0.86876303  0.74069236     0.05480
C512        C  0.50188297  0.87409601  0.71523485    -0.10670
C513        C  0.46825130  0.88680821  0.72534602     0.02980
C514        C  0.46230514  0.89468853  0.76095948    -0.09190
C515        C  0.48874831  0.88887549  0.78603615     0.05470
C516        C  0.52147429  0.87616451  0.77582488    -0.08610
H517        H  0.50769379  0.86838645  0.68797871     0.11070
H518        H  0.43681445  0.90439579  0.76931748     0.08600
H519        H  0.54178647  0.87166842  0.79554655     0.08440
C520        C  0.37922068  0.71380107  0.50652007     0.05480
C521        C  0.37474497  0.74033241  0.53164646    -0.10670
C522        C  0.36517975  0.77472007  0.52079450     0.02980
C523        C  0.35979147  0.78149361  0.48475329    -0.09190
C524        C  0.36464377  0.75493901  0.46003698     0.05470
C525        C  0.37437624  0.72137688  0.47093810    -0.08610
H526        H  0.37816381  0.73386243  0.55924428     0.11070
H527        H  0.35197961  0.80749382  0.47588013     0.08600
H528        H  0.37775328  0.70082641  0.45156239     0.08440
O529        O  0.52071277  0.99639410  0.94051346    -0.85990
C530        C  0.51092116  0.91388450  0.00746716     0.90040
Mg531      Mg  0.55234514  0.04070799  0.95171040     1.58150
O532        O  0.43703816  0.96820578  0.00257468    -0.85720
O533        O  0.46577283  0.98458266  0.92718013    -0.73050
C534        C  0.50954355  0.08003732  0.11490261     0.95090
O535        O  0.57732768  0.96438450  0.99471719    -0.72870
O536        O  0.53505514  0.08373759  0.09375275    -0.80370
Mg537      Mg  0.54484424  0.94601257  0.94734863     1.57960
C538        C  0.38594369  0.00369084  0.08787657     0.95010
O539        O  0.51598095  0.92664802  0.89831691    -0.78640
H540        H  0.39970869  0.99168889  0.97358710    -0.03980
C541        C  0.50393264  0.98574681  0.08327166     0.89950
O542        O  0.50357913  0.07142656  0.96934841    -0.73150
O543        O  0.50269347  0.93146000  0.98117929    -0.85910
O544        O  0.39508100  0.97486058  0.07370051    -0.78720
C545        C  0.41881454  0.87619700  0.01832126     0.95130
C546        C  0.48803611  0.91049923  0.88979205     0.94980
Mg547      Mg  0.45361685  0.04242975  0.05773473     1.57950
O548        O  0.48140105  0.06399843  0.10672222    -0.78640
O549        O  0.42176831  0.02320278  0.01026622    -0.72880
O550        O  0.43322430  0.88511837  0.98929869    -0.78720
O551        O  0.59186474  0.95966788  0.91367734    -0.80430
O552        O  0.56519167  0.10102698  0.01719512    -0.78750
C553        C  0.41846393  0.99389114  0.99490326     0.89410
O554        O  0.49597168  0.05620488  0.02448429    -0.85900
O555        O  0.47720248  0.99187597  0.06557736    -0.86000
O556        O  0.53225880  0.00289214  0.07899246    -0.73060
Mg557      Mg  0.45071528  0.93571436  0.95978374     1.57970
O558        O  0.41478278  0.89754603  0.04355300    -0.80430
H559        H  0.49374572  0.02390454  0.90440132    -0.04160
O560        O  0.56119065  0.01898544  0.00318152    -0.85700
H561        H  0.59928000  0.99588703  0.03149454    -0.03980
H562        H  0.46585148  0.09233448  0.00060451    -0.04160
C563        C  0.58031090  0.99357073  0.01038060     0.89390
C564        C  0.49377843  0.00232339  0.92304403     0.89980
C565        C  0.48781367  0.07435785  0.99860718     0.90020
H566        H  0.50353487  0.96436062  0.10214037    -0.04140
O567        O  0.49478512  0.91691814  0.03657519    -0.73160
Mg568      Mg  0.54772115  0.05125300  0.04619263     1.58000
H569        H  0.53316472  0.89620308  0.00592958    -0.04150
C570        C  0.61202294  0.98597132  0.91655595     0.95010
O571        O  0.58337916  0.08973236  0.96264011    -0.80390
C572        C  0.57932088  0.11041657  0.98833046     0.95070
O573        O  0.46357393  0.90394019  0.91155529    -0.80380
Mg574      Mg  0.44560469  0.94736212  0.05422573     1.58180
O575        O  0.60253937  0.01422647  0.93144683    -0.78710
O576        O  0.40656638  0.02957924  0.09078460    -0.80410
C577        C  0.60510939  0.21286079  0.99104608     0.05480
C578        C  0.59982576  0.23839937  0.96502048    -0.10670
C579        C  0.60867955  0.27356054  0.97126106     0.02980
C580        C  0.62208492  0.28279898  0.00494153    -0.09190
C581        C  0.62670256  0.25677180  0.03119535     0.05470
C582        C  0.61830419  0.22207184  0.02382230    -0.08610
H583        H  0.58957610  0.23070726  0.93954747     0.11070
H584        H  0.62863888  0.30972163  0.01090533     0.08600
H585        H  0.62215824  0.20190074  0.04384798     0.08440
C586        C  0.62674066  0.35044252  0.90559637     0.05480
C587        C  0.60133630  0.35175005  0.87812744    -0.10670
C588        C  0.60576121  0.37514247  0.84911466     0.02980
C589        C  0.63558452  0.39692140  0.84847562    -0.09190
C590        C  0.66053712  0.39590968  0.87568034     0.05470
C591        C  0.65605774  0.37244702  0.90354101    -0.08610
H592        H  0.57846007  0.33509588  0.87957882     0.11070
H593        H  0.63955345  0.41455028  0.82633218     0.08600
H594        H  0.67566249  0.37172326  0.92435541     0.08440
C595        C  0.46508385  0.36544917  0.76215548     0.05480
C596        C  0.47613424  0.37857518  0.72985570    -0.10670
C597        C  0.51140585  0.38594175  0.72378323     0.02980
C598        C  0.53626668  0.38083008  0.75099591    -0.09190
C599        C  0.52531554  0.36784912  0.78441743     0.05470
C600        C  0.48946528  0.35975126  0.78932221    -0.08610
H601        H  0.45704507  0.38231833  0.70878949     0.11070
H602        H  0.56373444  0.38614827  0.74574890     0.08600
H603        H  0.48051736  0.34906838  0.81428195     0.08440
C604        C  0.74119607  0.53721790  0.86302190     0.05480
C605        C  0.71465738  0.51232756  0.85887078    -0.10670
C606        C  0.72120944  0.47682747  0.86701206     0.02980
C607        C  0.75522104  0.46681880  0.87875085    -0.09190
C608        C  0.78145241  0.49224524  0.88257239     0.05470
C609        C  0.77427074  0.52716695  0.87485717    -0.08610
H610        H  0.68900179  0.52059873  0.84931446     0.11070
H611        H  0.76179053  0.43979106  0.88459682     0.08600
H612        H  0.79480896  0.54673602  0.87773792     0.08440
C613        C  0.38524449  0.77569687  0.01321214     0.05480
C614        C  0.38248788  0.74787219  0.03766315    -0.10670
C615        C  0.36981851  0.71457272  0.02682699     0.02980
C616        C  0.35992498  0.71043404  0.99122909    -0.09190
C617        C  0.36293965  0.73837273  0.96720184     0.05470
C618        C  0.37563138  0.77058779  0.97831256    -0.08610
H619        H  0.39003126  0.75267765  0.06463493     0.11070
H620        H  0.34974699  0.68552017  0.98220490     0.08600
H621        H  0.37760512  0.79218687  0.95958387     0.08440
C622        C  0.53706110  0.63380885  0.24745470     0.05480
C623        C  0.52615747  0.62227158  0.28044968    -0.10670
C624        C  0.49076371  0.61561379  0.28696940     0.02980
C625        C  0.46585927  0.61992408  0.25986115    -0.09190
C626        C  0.47679874  0.63133712  0.22605685     0.05470
C627        C  0.51257402  0.63867946  0.22038847    -0.08610
H628        H  0.54534189  0.61919281  0.30151625     0.11070
H629        H  0.43834224  0.61511807  0.26541069     0.08600
H630        H  0.52139379  0.64815623  0.19489839     0.08440
C631        C  0.35486160  0.59162148  0.12482461     0.05480
C632        C  0.35368061  0.62107527  0.10206189    -0.10670
C633        C  0.37570728  0.65036054  0.10828685     0.02980
C634        C  0.39771529  0.64987291  0.13820192    -0.09190
C635        C  0.39901310  0.62053195  0.16088539     0.05470
C636        C  0.37771575  0.59168488  0.15366795    -0.08610
H637        H  0.33582952  0.62088545  0.07983050     0.11070
H638        H  0.41371725  0.67262337  0.14378302     0.08600
H639        H  0.37863933  0.56895349  0.17103575     0.08440
C640        C  0.26125032  0.46805338  0.13122289     0.05480
C641        C  0.28569761  0.49558390  0.12811742    -0.10670
C642        C  0.27444807  0.52955818  0.11708175     0.02980
C643        C  0.23849835  0.53485409  0.10957396    -0.09190
C644        C  0.21447819  0.50730813  0.11307522     0.05470
C645        C  0.22591291  0.47421717  0.12373937    -0.08610
H646        H  0.31284853  0.49017606  0.13473085     0.11070
H647        H  0.22914410  0.56044774  0.10101806     0.08600
H648        H  0.20707840  0.45293697  0.12606503     0.08440
O649        O  0.02771047  0.54442901  0.03871113    -0.85990
C650        C  0.01612949  0.43972368  0.05113587     0.90040
Mg651      Mg  0.98370060  0.57831892  0.03378182     1.58150
O652        O  0.04264764  0.46540594  0.96688208    -0.85720
O653        O  0.07362502  0.52998514  0.00691561    -0.73050
C654        C  0.87801412  0.49690678  0.92231099     0.95090
O655        O  0.96709345  0.50184054  0.07907623    -0.72870
O656        O  0.87719368  0.51990044  0.94627015    -0.80370
Mg657      Mg  0.02706014  0.50804377  0.08167694     1.57960
C658        C  0.99988441  0.42566597  0.87841454     0.95010
O659        O  0.08698903  0.51473223  0.08926713    -0.78640
H660        H  0.07690939  0.49021398  0.93557957    -0.03980
C661        C  0.93974313  0.44563267  0.98009245     0.89950
O662        O  0.98923824  0.57746498  0.97360481    -0.73150
O663        O  0.03320472  0.46667801  0.04494377    -0.85910
O664        O  0.01600282  0.41553076  0.90609926    -0.78720
C665        C  0.07723613  0.38292997  0.99854724     0.95130
C666        C  0.11505194  0.49970248  0.07894568     0.94980
Mg667      Mg  0.96587420  0.49023629  0.91904291     1.57950
O668        O  0.90636919  0.48250129  0.91207790    -0.78640
O669        O  0.02581511  0.49697227  0.92140455    -0.72880
O670        O  0.08558313  0.41046045  0.01521961    -0.78720
O671        O  0.01735048  0.55030920  0.12157310    -0.80430
O672        O  0.90734274  0.58795777  0.98475751    -0.78750
C673        C  0.04970094  0.48396196  0.94100311     0.89410
O674        O  0.95966523  0.53153412  0.95562427    -0.85900
O675        O  0.96554602  0.45397476  0.96203720    -0.86000
O676        O  0.91980539  0.46837913  0.99417235    -0.73060
Mg677      Mg  0.07729002  0.46997812  0.01037229     1.57970
O678        O  0.05465496  0.38293107  0.97392375    -0.80430
H679        H  0.05894605  0.58026227  0.01625699    -0.04160
O680        O  0.95032056  0.53346274  0.03361788    -0.85700
H681        H  0.91600809  0.50894523  0.06507126    -0.03980
H682        H  0.98269926  0.56505435  0.92218383    -0.04160
C683        C  0.94323974  0.51501511  0.05955778     0.89390
C684        C  0.05372990  0.55275656  0.02098781     0.89980
C685        C  0.97693158  0.55833092  0.94927432     0.90020
H686        H  0.93476843  0.41813039  0.98511248    -0.04140
O687        O  0.00411993  0.42055860  0.02666912    -0.73160
Mg688      Mg  0.91562357  0.52833422  0.99020420     1.58000
H689        H  0.01037005  0.43281344  0.07818187    -0.04150
C690        C  0.99347849  0.57371586  0.12186305     0.95010
O691        O  0.93877901  0.61579252  0.02553736    -0.80390
C692        C  0.91608783  0.61566789  0.00098450     0.95070
O693        O  0.11543841  0.47729986  0.05446570    -0.80380
Mg694      Mg  0.00961721  0.42028059  0.96640799     1.58180
O695        O  0.97751184  0.58390822  0.09409134    -0.78710
O696        O  0.97538648  0.44835084  0.87895175    -0.80410
C697        C  0.89475022  0.12721797  0.65211566     0.05480
C698        C  0.86527492  0.10499714  0.65111755    -0.10670
C699        C  0.84401036  0.10281981  0.62090289     0.02980
C700        C  0.85199307  0.12365834  0.59165587    -0.09190
C701        C  0.88029522  0.14694169  0.59205245     0.05470
C702        C  0.90185219  0.14884490  0.62239394    -0.08610
H703        H  0.85897345  0.08941737  0.67419527     0.11070
H704        H  0.83558995  0.12212079  0.56828960     0.08600
H705        H  0.92374145  0.16694769  0.62262203     0.08440
C706        C  0.03346486  0.13565857  0.74296876     0.05480
C707        C  0.02138609  0.12394816  0.77547011    -0.10670
C708        C  0.98600020  0.11611512  0.78054318     0.02980
C709        C  0.96206991  0.11975496  0.75224781    -0.09190
C710        C  0.97401201  0.13153734  0.71867348     0.05470
C711        C  0.01002105  0.13958333  0.71472717    -0.08610
H712        H  0.03976037  0.12134878  0.79730805     0.11070
H713        H  0.93471221  0.11359276  0.75682995     0.08600
H714        H  0.01988344  0.14903860  0.68962536     0.08440
C715        C  0.72061689  0.00960943  0.61470093     0.05480
C716        C  0.72750938  0.97464899  0.62242536    -0.10670
C717        C  0.76002199  0.96447017  0.63553632     0.02980
C718        C  0.78638667  0.98926061  0.64100401    -0.09190
C719        C  0.78028804  0.02471753  0.63244095     0.05470
C720        C  0.74682313  0.03497156  0.61945086    -0.08610
H721        H  0.70704613  0.95512446  0.61875657     0.11070
H722        H  0.81161616  0.98094570  0.65162203     0.08600
H723        H  0.74088840  0.06220709  0.61362508     0.08440
C724        C  0.88720297  0.28703145  0.50597932     0.05480
C725        C  0.89119528  0.26308409  0.53374517    -0.10670
C726        C  0.88433708  0.22718927  0.52884716     0.02980
C727        C  0.87305895  0.21586237  0.49503639    -0.09190
C728        C  0.86942435  0.24032518  0.46716312     0.05470
C729        C  0.87667872  0.27558938  0.47298165    -0.08610
H730        H  0.89940413  0.27251927  0.55934770     0.11070
H731        H  0.86627264  0.18877745  0.49033762     0.08600
H732        H  0.87360958  0.29451395  0.45164166     0.08440
C733        C  0.00700643  0.11470620  0.28489746     0.05480
C734        C  0.03394776  0.11195883  0.26011809    -0.10670
C735        C  0.02771687  0.12047253  0.22450426     0.02980
C736        C  0.99346916  0.13147854  0.21423807    -0.09190
C737        C  0.96657488  0.13382895  0.23956737     0.05470
C738        C  0.97368247  0.12568445  0.27460020    -0.08610
H739        H  0.05967973  0.10273953  0.26854412     0.11070
H740        H  0.98732901  0.13752440  0.18703261     0.08600
H741        H  0.95279446  0.12727087  0.29404108     0.08440
C742        C  0.13772452  0.24093622  0.96976213     0.05480
C743        C  0.12852485  0.27559319  0.97615447    -0.10670
C744        C  0.11557206  0.28543292  0.00870198     0.02980
C745        C  0.11191907  0.26052812  0.03561203    -0.09190
C746        C  0.12151980  0.22525418  0.03001560     0.05470
C747        C  0.13443356  0.21549516  0.99648936    -0.08610
H748        H  0.13087848  0.29510150  0.95526916     0.11070
H749        H  0.10125587  0.26857124  0.06077203     0.08600
H750        H  0.14132159  0.18861634  0.99069005     0.08440
C751        C  0.14168194  0.09004653  0.12374611     0.05480
C752        C  0.11300727  0.09440664  0.14661315    -0.10670
C753        C  0.08927071  0.12263503  0.14236005     0.02980
C754        C  0.09417813  0.14613184  0.11419799    -0.09190
C755        C  0.12277539  0.14238650  0.09094915     0.05470
C756        C  0.14603473  0.11404842  0.09573157    -0.08610
H757        H  0.10901446  0.07518163  0.16733166     0.11070
H758        H  0.07513882  0.16697558  0.11029375     0.08600
H759        H  0.16714447  0.11057180  0.07698533     0.08440
C760        C  0.23725052  0.96640315  0.13491940     0.05480
C761        C  0.27250264  0.97255092  0.12750035    -0.10670
C762        C  0.28365162  0.00556946  0.11687751     0.02980
C763        C  0.25943649  0.03316909  0.11380538    -0.09190
C764        C  0.22357713  0.02778743  0.12164614     0.05470
C765        C  0.21254030  0.99381733  0.13216677    -0.08610
H766        H  0.29144620  0.95119989  0.12949969     0.11070
H767        H  0.26849564  0.05874889  0.10510531     0.08600
H768        H  0.18515667  0.98823198  0.13747514     0.08440
O769        O  0.21713056  0.21414240  0.70590193    -0.85990
C770        C  0.23419480  0.19916555  0.81002643     0.90040
Mg771      Mg  0.25930542  0.22066049  0.66982561     1.58150
O772        O  0.20359148  0.28304732  0.78840411    -0.85720
O773        O  0.17111004  0.24415160  0.72379767    -0.73050
C774        C  0.36579694  0.33212894  0.75012785     0.95090
O775        O  0.28073733  0.17452378  0.74482850    -0.72870
O776        O  0.36595775  0.30959362  0.72571023    -0.80370
Mg777      Mg  0.22055042  0.17045791  0.74119114     1.57960
C778        C  0.24589743  0.37146681  0.82826656     0.95010
O779        O  0.16048165  0.16186413  0.73650000    -0.78640
H780        H  0.16744624  0.31388385  0.76543440    -0.03980
C781        C  0.30793781  0.27202613  0.80227695     0.89950
O782        O  0.25217627  0.28054749  0.67231353    -0.73150
O783        O  0.21549296  0.20566210  0.78405279    -0.85910
O784        O  0.23115176  0.34326554  0.83873972    -0.78720
C785        C  0.17473710  0.24760055  0.87203137     0.95130
C786        C  0.13277074  0.17077073  0.75300994     0.94980
Mg787      Mg  0.27793486  0.33321894  0.76060149     1.57950
O788        O  0.33787070  0.34115001  0.76617074    -0.78640
O789        O  0.21778375  0.32918533  0.75660425    -0.72880
O790        O  0.16522673  0.23173132  0.84426656    -0.78720
O791        O  0.22921337  0.13180532  0.69759331    -0.80430
O792        O  0.33404540  0.27167884  0.65749336    -0.78750
C793        C  0.19505723  0.30896797  0.77046169     0.89410
O794        O  0.28326027  0.29813477  0.71763091    -0.85900
O795        O  0.28116671  0.28956530  0.79580525    -0.86000
O796        O  0.32715604  0.25942780  0.77805710    -0.73060
Mg797      Mg  0.17018260  0.23874108  0.78407338     1.57970
O798        O  0.19654964  0.27278756  0.87160501    -0.80430
H799        H  0.18358488  0.23736901  0.67238842    -0.04160
O800        O  0.29492796  0.22074854  0.71321424    -0.85700
H801        H  0.33108264  0.18975461  0.73593532    -0.03980
H802        H  0.25775875  0.33164251  0.68579450    -0.04160
C803        C  0.30346815  0.19474870  0.73101287     0.89390
C804        C  0.19029093  0.23160926  0.69951212     0.89980
C805        C  0.26459807  0.30465828  0.69163151     0.90020
H806        H  0.31453021  0.26622823  0.82941999    -0.04140
O807        O  0.24648111  0.22329373  0.82940089    -0.73160
Mg808      Mg  0.32847792  0.26490724  0.71780919     1.58000
H809        H  0.24114644  0.17220038  0.81581733    -0.04150
C810        C  0.25242858  0.13222219  0.67359497     0.95010
O811        O  0.30211395  0.23105618  0.63012856    -0.80390
C812        C  0.32446979  0.25578933  0.62972749     0.95070
O813        O  0.13279694  0.19393122  0.77680513    -0.80380
Mg814      Mg  0.23915109  0.28314961  0.83186921     1.58180
O815        O  0.26715984  0.16044426  0.66309726    -0.78710
O816        O  0.26901354  0.37188124  0.80417095    -0.80410
O817        O  0.70164442  0.21422753  0.21122083    -0.85990
C818        C  0.80549743  0.22842005  0.19618741     0.90040
Mg819      Mg  0.66704648  0.25762653  0.21744460     1.58150
O820        O  0.78498701  0.19949296  0.28085936    -0.85720
O821        O  0.71881000  0.16851285  0.24255902    -0.73050
C822        C  0.74791829  0.36276261  0.33070225     0.95090
O823        O  0.74187137  0.27576956  0.17096460    -0.72870
O824        O  0.72494768  0.36292247  0.30641937    -0.80370
Mg825      Mg  0.73620040  0.21573597  0.16716922     1.57960
C826        C  0.82784083  0.24198588  0.36984721     0.95010
O827        O  0.72926635  0.15523633  0.15972843    -0.78640
H828        H  0.76211001  0.16429206  0.31259956    -0.03980
C829        C  0.80100955  0.30387176  0.26980944     0.89950
O830        O  0.67035987  0.25053941  0.27765016    -0.73150
O831        O  0.77961766  0.20965739  0.20242777    -0.85910
O832        O  0.83753310  0.22689607  0.34152163    -0.78720
C833        C  0.86753441  0.16815298  0.24529419     0.95130
C834        C  0.74461702  0.12696522  0.16956993     0.94980
Mg835      Mg  0.75930737  0.27474483  0.33142229     1.57950
O836        O  0.76420362  0.33496795  0.34027566    -0.78640
O837        O  0.75482080  0.21478692  0.32752090    -0.72880
O838        O  0.83940537  0.15860222  0.22974818    -0.78720
O839        O  0.69212054  0.22621101  0.12811244    -0.80430
O840        O  0.65672144  0.33158538  0.26895578    -0.78750
C841        C  0.76756876  0.19163956  0.30723935     0.89410
O842        O  0.71621663  0.28054796  0.29575605    -0.85900
O843        O  0.79419039  0.27732720  0.28749660    -0.86000
O844        O  0.77701837  0.32332397  0.25668845    -0.73060
Mg845      Mg  0.77895479  0.16527764  0.23689284     1.57970
O846        O  0.86762954  0.19051091  0.26995108    -0.80430
H847        H  0.66765481  0.18235522  0.23558656    -0.04160
O848        O  0.71159147  0.29159826  0.21748165    -0.85700
H849        H  0.73558012  0.32636891  0.18605805    -0.03980
H850        H  0.68422492  0.25522626  0.32900937    -0.04160
C851        C  0.72948059  0.29913669  0.19128217     0.89390
C852        C  0.69484562  0.18806470  0.22950048     0.89980
C853        C  0.69002568  0.26226627  0.30200457     0.90020
H854        H  0.82822442  0.30999646  0.26427730    -0.04140
O855        O  0.82485978  0.24074949  0.22049659    -0.73160
Mg856      Mg  0.71679662  0.32537478  0.26180445     1.58320
H857        H  0.81118472  0.23549581  0.16916762    -0.04150
C858        C  0.66886553  0.25029823  0.12842055     0.95010
O859        O  0.62836926  0.30139188  0.22771667    -0.80390
C860        C  0.62856992  0.32284504  0.25315005     0.95070
O861        O  0.76883916  0.12669856  0.19274941    -0.80380
Mg862      Mg  0.82899405  0.23409837  0.28066965     1.58180
O863        O  0.65953706  0.26555979  0.15673305    -0.78710
O864        O  0.80354119  0.26501157  0.37029014    -0.80410
C865        C  0.13553678  0.74131867  0.03016271     0.05480
C866        C  0.12728830  0.77620401  0.02289395    -0.10670
C867        C  0.11637258  0.78638968  0.98945335     0.02980
C868        C  0.11383572  0.76155079  0.96264075    -0.09190
C869        C  0.12234056  0.72604760  0.96916096     0.05470
C870        C  0.13324745  0.71602791  0.00349326    -0.08610
H871        H  0.12886911  0.79558464  0.04366591     0.11070
H872        H  0.10488181  0.76986008  0.93674607     0.08600
H873        H  0.13930517  0.68900346  0.00995331     0.08440
C874        C  0.14287981  0.59048108  0.87772997     0.05480
C875        C  0.14659313  0.61416150  0.90580451    -0.10670
C876        C  0.12371723  0.64291492  0.90945372     0.02980
C877        C  0.09606340  0.64731141  0.88502853    -0.09190
C878        C  0.09158678  0.62393854  0.85695018     0.05470
C879        C  0.11500201  0.59535757  0.85383890    -0.08610
H880        H  0.16701255  0.61020341  0.92535221     0.11070
H881        H  0.07736146  0.66855128  0.88805520     0.08600
H882        H  0.11149941  0.57630932  0.83316846     0.08440
C883        C  0.00909284  0.61464134  0.71387187     0.05480
C884        C  0.97642330  0.62770141  0.72367844    -0.10670
C885        C  0.97007227  0.63754321  0.75829460     0.02980
C886        C  0.99687486  0.63446026  0.78370913    -0.09190
C887        C  0.03039022  0.62124827  0.77408762     0.05470
C888        C  0.03598984  0.61124838  0.73887542    -0.08610
H889        H  0.95563382  0.63017328  0.70411543     0.11070
H890        H  0.99118454  0.64187720  0.81053280     0.08600
H891        H  0.06129184  0.60077425  0.73087884     0.08440
C892        C  0.24167647  0.46917015  0.86578440     0.05480
C893        C  0.27671889  0.47642088  0.87351766    -0.10670
C894        C  0.28665898  0.50950145  0.88487159     0.02980
C895        C  0.26139127  0.53596013  0.88852861    -0.09190
C896        C  0.22576946  0.52954847  0.88042528     0.05470
C897        C  0.21596679  0.49560237  0.86903283    -0.08610
H898        H  0.29646417  0.45589789  0.87112074     0.11070
H899        H  0.26947509  0.56150504  0.89791916     0.08600
H900        H  0.18882128  0.48934631  0.86326023     0.08440
O901        O  0.18812129  0.74992328  0.22361738    -0.85990
C902        C  0.25468031  0.66811155  0.23560665     0.90040
Mg903      Mg  0.19943454  0.79377591  0.19098399     1.58150
O904        O  0.25116772  0.72409835  0.30773955    -0.85720
O905        O  0.17517912  0.73991128  0.27905177    -0.73050
C906        C  0.36391848  0.83558165  0.23271512     0.95090
O907        O  0.24297610  0.71811763  0.16908185    -0.72870
O908        O  0.34214278  0.84018258  0.20765809    -0.80370
Mg909      Mg  0.19519121  0.69920838  0.20112221     1.57960
C910        C  0.33812422  0.75846580  0.35730832     0.95010
O911        O  0.14588045  0.67895970  0.23000728    -0.78640
H912        H  0.22325149  0.74766003  0.34539358    -0.03980
C913        C  0.33174441  0.74153807  0.23988923     0.89950
O914        O  0.21711548  0.82502449  0.23951899    -0.73150
O915        O  0.22860707  0.68577847  0.24374569    -0.85910
O916        O  0.32330975  0.73001230  0.34828964    -0.78720
C917        C  0.26604624  0.63263237  0.32835350     0.95130
C918        C  0.13746691  0.66378851  0.25875581     0.94980
Mg919      Mg  0.30701311  0.79788121  0.28978682     1.57950
O920        O  0.35588270  0.81916417  0.26087478    -0.78640
O921        O  0.25996020  0.77892109  0.32259298    -0.72880
O922        O  0.23676116  0.64169107  0.31456723    -0.78720
O923        O  0.16214481  0.71136386  0.15320465    -0.80430
O924        O  0.26328707  0.85661742  0.17805266    -0.78750
C925        C  0.24421646  0.74975678  0.32628520     0.89410
O926        O  0.27283056  0.81167106  0.24759497    -0.85900
O927        O  0.31389599  0.74730876  0.26645133    -0.86000
O928        O  0.32758105  0.75901078  0.21154206    -0.73060
Mg929      Mg  0.20767404  0.69160120  0.29557733     1.57970
O930        O  0.29196266  0.65347752  0.33074865    -0.80430
H931        H  0.15205474  0.77801604  0.24941634    -0.04160
O932        O  0.25128561  0.77331503  0.18315562    -0.85700
H933        H  0.28028599  0.74905512  0.14677225    -0.03980
H934        H  0.24767024  0.84674424  0.27737720    -0.04160
C935        C  0.25881370  0.74727042  0.16534246     0.89390
C936        C  0.17073737  0.75657178  0.25028223     0.89980
C937        C  0.24628785  0.82879791  0.25551162     0.90020
H938        H  0.35075842  0.72037530  0.24050194    -0.04140
O939        O  0.28422182  0.67183448  0.25078937    -0.73160
Mg940      Mg  0.29399454  0.80697914  0.19572863     1.58000
H941        H  0.25260768  0.64992635  0.21399073    -0.04150
C942        C  0.16576462  0.73691191  0.13195513     0.95010
O943        O  0.20945546  0.84286448  0.15913108    -0.80390
C944        C  0.23405005  0.86483691  0.16360348     0.95070
O945        O  0.15900950  0.65960702  0.28404789    -0.80380
Mg946      Mg  0.30262816  0.70282338  0.29881059     1.58180
O947        O  0.18020896  0.76567257  0.14081221    -0.78710
O948        O  0.34097383  0.78468502  0.33676160    -0.80410
C949        C  0.73839817  0.02875954  0.13220046     0.05480
C950        C  0.77352667  0.02174921  0.12463447    -0.10670
C951        C  0.78404822  0.98885447  0.11323227     0.02980
C952        C  0.75917179  0.96215695  0.10901421    -0.09190
C953        C  0.72334761  0.96799522  0.11692504     0.05470
C954        C  0.71300267  0.00193036  0.12859232    -0.08610
H955        H  0.79305961  0.04229276  0.12761380     0.11070
H956        H  0.76781741  0.93666639  0.09986911     0.08600
H957        H  0.68574199  0.00774136  0.13438982     0.08440
C958        C  0.64277096  0.90340613  0.12569624     0.05480
C959        C  0.64850025  0.87411138  0.10337253    -0.10670
C960        C  0.62527512  0.84510968  0.10425438     0.02980
C961        C  0.59645092  0.84577638  0.12699823    -0.09190
C962        C  0.58989576  0.87433823  0.14875751     0.05470
C963        C  0.61306021  0.90306883  0.14794794    -0.08610
H964        H  0.67079164  0.87335242  0.08576908     0.11070
H965        H  0.57861151  0.82359616  0.12766683     0.08600
H966        H  0.60786565  0.92552094  0.16447391     0.08440
C967        C  0.63732275  0.76178775  0.96381948     0.05480
C968        C  0.62610937  0.72884342  0.97457882    -0.10670
C969        C  0.61943958  0.72173530  0.00981498     0.02980
C970        C  0.62389193  0.74837225  0.03501948    -0.09190
C971        C  0.63531649  0.78243167  0.02434809     0.05470
C972        C  0.64223050  0.78844732  0.98839362    -0.08610
H973        H  0.62267880  0.70831609  0.95516730     0.11070
H974        H  0.61828124  0.74222427  0.06224172     0.08600
H975        H  0.65118248  0.81397801  0.97942249     0.08440
C976        C  0.46464315  0.86810690  0.24084590     0.05480
C977        C  0.49169591  0.87290462  0.21611826    -0.10670
C978        C  0.52560870  0.88344128  0.22734443     0.02980
C979        C  0.53143265  0.88947310  0.26333109    -0.09190
C980        C  0.50440763  0.88427230  0.28770067     0.05470
C981        C  0.47128976  0.87355095  0.27645052    -0.08610
H982        H  0.48596252  0.86909262  0.18847902     0.11070
H983        H  0.55700056  0.89824695  0.27240278     0.08600
H984        H  0.45027662  0.87013412  0.29551533     0.08440
C985        C  0.83959017  0.60312705  0.37332882     0.05480
C986        C  0.86355326  0.59924659  0.34524857    -0.10670
C987        C  0.89184424  0.62260678  0.34072467     0.02980
C988        C  0.89549991  0.65069279  0.36431045    -0.09190
C989        C  0.87217318  0.65516648  0.39251947     0.05470
C990        C  0.84406291  0.63138180  0.39653428    -0.08610
H991        H  0.86012839  0.57844998  0.32633744     0.11070
H992        H  0.91617504  0.66980431  0.36057033     0.08600
H993        H  0.82500591  0.63492289  0.41733250     0.08440
C994        C  0.03512125  0.63415860  0.25882107     0.05480
C995        C  0.02506963  0.62252706  0.22576262    -0.10670
C996        C  0.99034925  0.61306852  0.21911794     0.02980
C997        C  0.96501111  0.61515303  0.24593191    -0.09190
C998        C  0.97479462  0.62693533  0.27982073     0.05470
C999        C  0.01015228  0.63657886  0.28577216    -0.08610
H1000       H  0.04455601  0.62071090  0.20494783     0.11070
H1001       H  0.93814981  0.60793995  0.24001624     0.08600
H1002       H  0.01830154  0.64593598  0.31141360     0.08440
C1003       C  0.86652880  0.73874307  0.53406189     0.05480
C1004       C  0.86143786  0.71213433  0.50947442    -0.10670
C1005       C  0.87057872  0.71741790  0.47389257     0.02980
C1006       C  0.88433495  0.75046475  0.46346186    -0.09190
C1007       C  0.88898137  0.77697567  0.48860205     0.05470
C1008       C  0.88032873  0.77076193  0.52358808    -0.08610
H1009       H  0.85014914  0.68740695  0.51803309     0.11070
H1010       H  0.89080715  0.75603052  0.43626952     0.08600
H1011       H  0.88374357  0.79141374  0.54286550     0.08440
C1012       C  0.71555097  0.50801892  0.38706145     0.05480
C1013       C  0.72167443  0.47280405  0.37943831    -0.10670
C1014       C  0.75445235  0.46164393  0.36753935     0.02980
C1015       C  0.78178626  0.48594453  0.36341818    -0.09190
C1016       C  0.77658802  0.52168981  0.37145975     0.05470
C1017       C  0.74290509  0.53261535  0.38323020    -0.08610
H1018       H  0.70044077  0.45395406  0.38211611     0.11070
H1019       H  0.80705322  0.47703698  0.35364403     0.08600
H1020       H  0.73747781  0.55991227  0.38867112     0.08440
C1021       C  0.96463112  0.86590302  0.25651403     0.05480
C1022       C  0.97637950  0.87668981  0.22361497    -0.10670
C1023       C  0.01176276  0.88372364  0.21789972     0.02980
C1024       C  0.03604679  0.87994542  0.24572847    -0.09190
C1025       C  0.02446956  0.86871109  0.27957669     0.05470
C1026       C  0.98840528  0.86168169  0.28439351    -0.08610
H1027       H  0.95767071  0.87959074  0.20208822     0.11070
H1028       H  0.06327027  0.88628188  0.24068914     0.08600
H1029       H  0.97876450  0.85306242  0.30987685     0.08440
C1030       C  0.10437402  0.87555732  0.34288246     0.05480
C1031       C  0.12726241  0.90414722  0.34306145    -0.10670
C1032       C  0.14840162  0.91133364  0.37217708     0.02980
C1033       C  0.14694739  0.88884696  0.40170723    -0.09190
C1034       C  0.12487087  0.85918195  0.40213501     0.05470
C1035       C  0.10294326  0.85304652  0.37254143    -0.08610
H1036       H  0.12836212  0.92133717  0.32017451     0.11070
H1037       H  0.16289831  0.89437694  0.42464631     0.08600
H1038       H  0.08502034  0.83106259  0.37219291     0.08440
C1039       C  0.24121773  0.03585411  0.36664348     0.05480
C1040       C  0.21602327  0.00919419  0.37074840    -0.10670
C1041       C  0.22645957  0.97559720  0.38320903     0.02980
C1042       C  0.26198262  0.96972441  0.39177258    -0.09190
C1043       C  0.28669949  0.99636594  0.38718243     0.05470
C1044       C  0.27635718  0.02911101  0.37456276    -0.08610
H1045       H  0.18867783  0.01496932  0.36501066     0.11070
H1046       H  0.27042054  0.94443240  0.40205832     0.08600
H1047       H  0.29574341  0.04983034  0.37169056     0.08440
C1048       C  0.13286581  0.76271855  0.52737847     0.05480
C1049       C  0.13004470  0.78786526  0.50004206    -0.10670
C1050       C  0.11827287  0.77770274  0.46605343     0.02980
C1051       C  0.10949575  0.74219282  0.46066324    -0.09190
C1052       C  0.11264559  0.71749342  0.48795828     0.05470
C1053       C  0.12420245  0.72786774  0.52097616    -0.08610
H1054       H  0.13690113  0.81475924  0.50559961     0.11070
H1055       H  0.10031500  0.73364399  0.43507733     0.08600
H1056       H  0.12652816  0.70850110  0.54200007     0.08440
C1057       C  0.25743245  0.97064184  0.86473363     0.05480
C1058       C  0.22234426  0.97782606  0.87237192    -0.10670
C1059       C  0.21215017  0.01081185  0.88383191     0.02980
C1060       C  0.23731509  0.03723694  0.88793150    -0.09190
C1061       C  0.27307044  0.03089423  0.88009332     0.05470
C1062       C  0.28304427  0.99702261  0.86841263    -0.08610
H1063       H  0.20267488  0.95741551  0.86942284     0.11070
H1064       H  0.22900664  0.06278567  0.89722215     0.08600
H1065       H  0.31021951  0.99082657  0.86264734     0.08440
C1066       C  0.35614659  0.09181935  0.87864372     0.05480
C1067       C  0.38500096  0.09596873  0.85582500    -0.10670
C1068       C  0.40896505  0.12388311  0.85989429     0.02980
C1069       C  0.40400904  0.14735227  0.88779545    -0.09190
C1070       C  0.37533113  0.14391591  0.91103658     0.05470
C1071       C  0.35188482  0.11582063  0.90644085    -0.08610
H1072       H  0.38890221  0.07684130  0.83528656     0.11070
H1073       H  0.42315279  0.16795127  0.89157769     0.08600
H1074       H  0.33068770  0.11256515  0.92514658     0.08440
C1075       C  0.38565861  0.28649774  0.99274107     0.05480
C1076       C  0.38787546  0.26182872  0.96570699    -0.10670
C1077       C  0.37826298  0.22654471  0.97170143     0.02980
C1078       C  0.36676360  0.21651681  0.00578964    -0.09190
C1079       C  0.36482679  0.24159921  0.03272670     0.05470
C1080       C  0.37396637  0.27630346  0.02587963    -0.08610
H1081       H  0.39758706  0.27003774  0.94011436     0.11070
H1082       H  0.36015670  0.18956764  0.01185870     0.08600
H1083       H  0.37280749  0.29547087  0.04688140     0.08440
C1084       C  0.53269371  0.13755378  0.76351010     0.05480
C1085       C  0.52648567  0.12807451  0.72882021    -0.10670
C1086       C  0.49401538  0.11512677  0.71862318     0.02980
C1087       C  0.46691810  0.11162964  0.74320929    -0.09190
C1088       C  0.47214792  0.12141609  0.77855197     0.05470
C1089       C  0.50564241  0.13445588  0.78868649    -0.08610
H1090       H  0.54746307  0.13030604  0.70951404     0.11070
H1091       H  0.44183474  0.10101574  0.73483221     0.08600
H1092       H  0.51108466  0.14162432  0.81564914     0.08440
O1093       O  0.96027089  0.95553790  0.53003466    -0.85990
C1094       C  0.06456511  0.94019879  0.51450361     0.90040
Mg1095     Mg  0.92370499  0.96148751  0.48824738     1.58150
O1096       O  0.04355945  0.02419943  0.54428441    -0.85720
O1097       O  0.97840583  0.98538344  0.57590427    -0.73050
C1098       C  0.00077403  0.07548562  0.38268051     0.95090
O1099       O  0.99965104  0.91664067  0.46700889    -0.72870
O1100       O  0.97698564  0.05224362  0.38248075    -0.80370
Mg1101     Mg  0.99547541  0.91205954  0.52708168     1.57960
C1102       C  0.08282610  0.11161981  0.49953599     0.95010
O1103       O  0.98936751  0.90419678  0.58666257    -0.78640
H1104       H  0.02116841  0.05492846  0.58037433    -0.03980
C1105       C  0.05535226  0.01376267  0.43910400     0.89950
O1106       O  0.92517689  0.02130377  0.49552955    -0.73150
O1107       O  0.03857657  0.94703700  0.53279595    -0.85910
O1108       O  0.09370705  0.08356581  0.51439434    -0.78720
C1109       C  0.12717862  0.99026783  0.57429180     0.95130
C1110       C  0.00518427  0.91295051  0.61474025     0.94980
Mg1111     Mg  0.01384596  0.07401386  0.46991009     1.57950
O1112       O  0.01777748  0.08357373  0.41026491    -0.78640
O1113       O  0.01098539  0.06976553  0.53000320    -0.72880
O1114       O  0.09952632  0.97419011  0.58442994    -0.78720
O1115       O  0.95214455  0.87295728  0.51788452    -0.80430
O1116       O  0.91036017  0.01280207  0.41442182    -0.78750
C1117       C  0.02564069  0.04995149  0.55274725     0.89410
O1118       O  0.97076765  0.03900009  0.46496835    -0.85900
O1119       O  0.04910373  0.03037151  0.46627182    -0.86000
O1120       O  0.03092126  0.00179854  0.41973239    -0.73060
Mg1121     Mg  0.03871837  0.97998833  0.57787714     1.57970
O1122       O  0.12654164  0.01386362  0.55047858    -0.80430
H1123       H  0.92697284  0.97901809  0.56312793    -0.04160
O1124       O  0.96695983  0.96217573  0.45259760    -0.85700
H1125       H  0.99047958  0.93213254  0.41661113    -0.03980
H1126       H  0.93883296  0.07245865  0.48979160    -0.04160
C1127       C  0.98536466  0.93670925  0.44420237     0.89390
C1128       C  0.95402953  0.97305635  0.55665784     0.89980
C1129       C  0.94465938  0.04550225  0.48325195     0.90020
H1130       H  0.08242189  0.00836158  0.43219314    -0.04140
O1131       O  0.08390049  0.96412761  0.50154900    -0.73160
Mg1132     Mg  0.97060056  0.00672381  0.41934686     1.58000
H1133       H  0.07028380  0.91311824  0.50836450    -0.04150
C1134       C  0.92844182  0.87349759  0.49428873     0.95010
O1135       O  0.88363445  0.97104628  0.44578400    -0.80390
C1136       C  0.88286207  0.99625298  0.42379486     0.95070
O1137       O  0.03022792  0.93493496  0.61520637    -0.80380
Mg1138     Mg  0.08624372  0.02385531  0.50785815     1.58180
O1139       O  0.91776943  0.90181956  0.47984637    -0.78710
O1140       O  0.05762148  0.11218137  0.47762846    -0.80410
C1141       C  0.01127128  0.38962097  0.77972111     0.05480
C1142       C  0.97972353  0.37434955  0.76966097    -0.10670
C1143       C  0.97443065  0.36338384  0.73523857     0.02980
C1144       C  0.00157760  0.36743039  0.71021641    -0.09190
C1145       C  0.03421057  0.38279258  0.72013008     0.05470
C1146       C  0.03836505  0.39410048  0.75516343    -0.08610
H1147       H  0.95880199  0.37125008  0.78889782     0.11070
H1148       H  0.99684516  0.35913413  0.68345447     0.08600
H1149       H  0.06275656  0.40628979  0.76339867     0.08440
C1150       C  0.09968998  0.37396304  0.64032934     0.05480
C1151       C  0.12816893  0.39772063  0.64476340    -0.10670
C1152       C  0.15666431  0.39785977  0.62071082     0.02980
C1153       C  0.15624873  0.37435482  0.59258432    -0.09190
C1154       C  0.12860521  0.35089569  0.58762004     0.05470
C1155       C  0.10035210  0.35103217  0.61140273    -0.08610
H1156       H  0.12861585  0.41558115  0.66669435     0.11070
H1157       H  0.17799935  0.37425499  0.57410042     0.08600
H1158       H  0.07843842  0.33342918  0.60730997     0.08440
C1159       C  0.11735677  0.21045761  0.50527099     0.05480
C1160       C  0.11253303  0.23503553  0.53199758    -0.10670
C1161       C  0.11932291  0.27080164  0.52569415     0.02980
C1162       C  0.13011161  0.28154298  0.49164696    -0.09190
C1163       C  0.13460729  0.25661622  0.46502286     0.05470
C1164       C  0.12846404  0.22128507  0.47207434    -0.08610
H1165       H  0.10351171  0.22631048  0.55767822     0.11070
H1166       H  0.13441752  0.30895231  0.48544576     0.08600
H1167       H  0.13169673  0.20209508  0.45131750     0.08440
C1168       C  0.28134406  0.49145047  0.62048559     0.05480
C1169       C  0.25421623  0.46662876  0.62466821    -0.10670
C1170       C  0.21974391  0.47758782  0.63437714     0.02980
C1171       C  0.21378340  0.51356080  0.64049955    -0.09190
C1172       C  0.24096815  0.53797446  0.63608619     0.05470
C1173       C  0.27433133  0.52682711  0.62601462    -0.08610
H1174       H  0.26038198  0.43923194  0.62072422     0.11070
H1175       H  0.18794426  0.52261940  0.64849625     0.08600
H1176       H  0.29530165  0.54592712  0.62298162     0.08440
O1177       O  0.25146397  0.27592035  0.18721890    -0.85990
C1178       C  0.33281409  0.25889271  0.25350993     0.90040
Mg1179     Mg  0.20924904  0.31001932  0.20062537     1.58150
O1180       O  0.27414592  0.18897659  0.24847978    -0.85720
O1181       O  0.25917897  0.22051696  0.17346336    -0.73050
C1182       C  0.16804561  0.26458879  0.36454707     0.95090
O1183       O  0.28721616  0.32832735  0.24201342    -0.72870
O1184       O  0.16609920  0.29095049  0.34399578    -0.80370
Mg1185     Mg  0.30348441  0.29618917  0.19360854     1.57960
C1186       C  0.23709761  0.13665885  0.33377445     0.95010
O1187       O  0.32149576  0.26691381  0.14349605    -0.78640
H1188       H  0.24860109  0.15375985  0.21932551    -0.03980
C1189       C  0.26143188  0.25349556  0.33115869     0.89950
O1190       O  0.17603515  0.26269900  0.21807981    -0.73150
O1191       O  0.31524464  0.25239788  0.22685817    -0.85910
O1192       O  0.26622102  0.14498416  0.31934393    -0.78720
C1193       C  0.36553890  0.16556985  0.26292921     0.95130
C1194       C  0.33562877  0.23784110  0.13482901     0.94980
Mg1195     Mg  0.20143583  0.20768550  0.30546792     1.57950
O1196       O  0.18183897  0.23555856  0.35538577    -0.78640
O1197       O  0.21852216  0.17623125  0.25707173    -0.72880
O1198       O  0.35707721  0.18085320  0.23414800    -0.78720
O1199       O  0.29249573  0.34542733  0.16105214    -0.80430
O1200       O  0.14955380  0.32413657  0.26751733    -0.78750
C1201       C  0.24750748  0.17195526  0.24100323     0.89410
O1202       O  0.19024312  0.25201929  0.27314699    -0.85900
O1203       O  0.25337757  0.22786117  0.31306610    -0.86000
O1204       O  0.24641000  0.28312052  0.32739850    -0.73060
Mg1205     Mg  0.30729735  0.20138757  0.20523947     1.57970
O1206       O  0.34396147  0.16141124  0.28807989    -0.80430
H1207       H  0.22175987  0.25178287  0.15132215    -0.04160
O1208       O  0.23190032  0.31517875  0.25199659    -0.85700
H1209       H  0.25786693  0.35069576  0.28043267    -0.03980
H1210       H  0.15284157  0.22512083  0.24808375    -0.04160
C1211       C  0.25860169  0.33238481  0.25883801     0.89390
C1212       C  0.24348494  0.24984808  0.16967849     0.89980
C1213       C  0.17200690  0.24600158  0.24686580     0.90020
H1214       H  0.28284572  0.25096108  0.34981294    -0.04140
O1215       O  0.32860365  0.24223586  0.28234084    -0.73160
Mg1216     Mg  0.19881719  0.30269655  0.29556629     1.58000
H1217       H  0.35160152  0.28012566  0.25255109    -0.04150
C1218       C  0.26756154  0.36734672  0.16511605     0.95010
O1219       O  0.16188161  0.34367815  0.21344667    -0.80390
C1220       C  0.14084653  0.33982152  0.23911063     0.95070
O1221       O  0.33961855  0.21257799  0.15646431    -0.80380
Mg1222     Mg  0.29596353  0.19442625  0.29997938     1.58180
O1223       O  0.23894570  0.35928433  0.18065047    -0.78710
O1224       O  0.21189232  0.15831167  0.33724775    -0.80410
C1225       C  0.87547450  0.33971793  0.10547463     0.05480
C1226       C  0.84747893  0.36382551  0.10141752    -0.10670
C1227       C  0.84319334  0.39197937  0.12473505     0.02980
C1228       C  0.86690848  0.39533104  0.15304743    -0.09190
C1229       C  0.89504415  0.37177696  0.15769837     0.05470
C1230       C  0.89882048  0.34379672  0.13391895    -0.08610
H1231       H  0.82845356  0.36062340  0.08045710     0.11070
H1232       H  0.86336198  0.41597340  0.17212688     0.08600
H1233       H  0.91957924  0.32461716  0.13760827     0.08440
C1234       C  0.88730545  0.21759259  0.00897677     0.05480
C1235       C  0.88099154  0.22465146  0.97359096    -0.10670
C1236       C  0.87049660  0.25786472  0.96254789     0.02980
C1237       C  0.86655044  0.28481521  0.98709093    -0.09190
C1238       C  0.87350768  0.27862527  0.02311330     0.05470
C1239       C  0.88378666  0.24441815  0.03398221    -0.08610
H1240       H  0.88340723  0.20373129  0.95445204     0.11070
H1241       H  0.85775638  0.31048293  0.97818030     0.08600
H1242       H  0.88822668  0.23821738  0.06148507     0.08440
C1243       C  0.99187464  0.38617187  0.28016385     0.05480
C1244       C  0.02730989  0.37962976  0.27344597    -0.10670
C1245       C  0.03808936  0.36815401  0.24052036     0.02980
C1246       C  0.01327641  0.36320132  0.21375957    -0.09190
C1247       C  0.97731601  0.37009803  0.21967280     0.05470
C1248       C  0.96669076  0.38152642  0.25343464    -0.08610
H1249       H  0.04667188  0.38309959  0.29420901     0.11070
H1250       H  0.02200905  0.35391737  0.18829297     0.08600
H1251       H  0.93924311  0.38618848  0.25936961     0.08440
C1252       C  0.76274368  0.53577346  0.13510395     0.05480
C1253       C  0.72965337  0.52640402  0.12300111    -0.10670
C1254       C  0.72257670  0.49202364  0.11342201     0.02980
C1255       C  0.74914176  0.46632333  0.11553446    -0.09190
C1256       C  0.78318287  0.47550646  0.12765569     0.05470
C1257       C  0.78948064  0.51055129  0.13759252    -0.08610
H1258       H  0.70894331  0.54609511  0.12144834     0.11070
H1259       H  0.74288640  0.43968259  0.10828713     0.08600
H1260       H  0.81508781  0.51817299  0.14756488     0.08440
C1261       C  0.85774918  0.91048463  0.87602458     0.05480
C1262       C  0.85378233  0.88632319  0.90392789    -0.10670
C1263       C  0.87657846  0.85755633  0.90781963     0.02980
C1264       C  0.90453604  0.85358743  0.88390434    -0.09190
C1265       C  0.90943741  0.87752492  0.85606345     0.05470
C1266       C  0.88596702  0.90613282  0.85257693    -0.08610
H1267       H  0.83322947  0.88994790  0.92325724     0.11070
H1268       H  0.92316524  0.83227212  0.88715923     0.08600
H1269       H  0.88962870  0.92554670  0.83200775     0.08440
C1270       C  0.03234571  0.86390671  0.76008515     0.05480
C1271       C  0.02513552  0.86969033  0.72470474    -0.10670
C1272       C  0.99222498  0.88116825  0.71388894     0.02980
C1273       C  0.96556652  0.88661030  0.73856195    -0.09190
C1274       C  0.97178589  0.87992100  0.77458085     0.05470
C1275       C  0.00578938  0.86866816  0.78537718    -0.08610
H1276       H  0.04582879  0.86616238  0.70529439     0.11070
H1277       H  0.94010222  0.89619406  0.72974920     0.08600
H1278       H  0.01195230  0.86447710  0.81293158     0.08440
C1279       C  0.75821356  0.03156633  0.86672008     0.05480
C1280       C  0.72335024  0.02401001  0.87500248    -0.10670
C1281       C  0.71373998  0.99046207  0.88566531     0.02980
C1282       C  0.73913830  0.96396025  0.88819104    -0.09190
C1283       C  0.77455718  0.97077950  0.87965255     0.05470
C1284       C  0.78404070  0.00511683  0.86886626    -0.08610
H1285       H  0.70347352  0.04450340  0.87321539     0.11070
H1286       H  0.73126771  0.93797686  0.89688380     0.08600
H1287       H  0.81101052  0.01161440  0.86258079     0.08440
C1288       C  0.86128271  0.75972899  0.02897553     0.05480
C1289       C  0.86894572  0.72469779  0.02264368    -0.10670
C1290       C  0.88085822  0.71415528  0.98990107     0.02980
C1291       C  0.88501774  0.73879741  0.96276625    -0.09190
C1292       C  0.87695558  0.77446228  0.96838312     0.05470
C1293       C  0.86512637  0.78484529  0.00209501    -0.08610
H1294       H  0.86615659  0.70543112  0.04369563     0.11070
H1295       H  0.89483743  0.73025199  0.93743584     0.08600
H1296       H  0.85947493  0.81198216  0.00797075     0.08440
O1297       O  0.20407290  0.72417492  0.70841898    -0.85990
C1298       C  0.30910118  0.73650591  0.69533903     0.90040
Mg1299     Mg  0.16957285  0.76745056  0.71453592     1.58150
O1300       O  0.28492957  0.70934975  0.77987184    -0.85720
O1301       O  0.21964087  0.67828308  0.74007455    -0.73050
C1302       C  0.25256661  0.87341753  0.82605735     0.95090
O1303       O  0.24538440  0.78562620  0.66902444    -0.72870
O1304       O  0.22852795  0.87370277  0.80279259    -0.80370
Mg1305     Mg  0.23986114  0.72577754  0.66534897     1.57960
C1306       C  0.32681204  0.75133266  0.86821819     0.95010
O1307       O  0.23358474  0.66576541  0.65738956    -0.78640
H1308       H  0.26129535  0.67473854  0.81172912    -0.03980
C1309       C  0.30330700  0.81261742  0.76660885     0.89950
O1310       O  0.17282573  0.76054994  0.77471590    -0.73150
O1311       O  0.28231049  0.71914705  0.70163433    -0.85910
O1312       O  0.33604179  0.73547104  0.84032481    -0.78720
C1313       C  0.36725470  0.67465246  0.74861009     0.95130
C1314       C  0.24876417  0.63766580  0.66779844     0.94980
Mg1315     Mg  0.26101814  0.78544052  0.82870054     1.57950
O1316       O  0.26813360  0.84533678  0.83574875    -0.78640
O1317       O  0.25496540  0.72548555  0.82629227    -0.72880
O1318       O  0.33960473  0.66619565  0.73181583    -0.78720
O1319       O  0.19655244  0.73619790  0.62568530    -0.80430
O1320       O  0.15944291  0.84128041  0.76639838    -0.78750
C1321       C  0.26725813  0.70194424  0.80620017     0.89410
O1322       O  0.21842443  0.79098134  0.79283938    -0.85900
O1323       O  0.29597936  0.78655161  0.78483171    -0.86000
O1324       O  0.27968682  0.83244308  0.75332110    -0.73060
Mg1325     Mg  0.27975026  0.67490419  0.73639717     1.57970
O1326       O  0.36740827  0.69787645  0.77232715    -0.80430
H1327       H  0.16889072  0.69231830  0.73099833    -0.04160
O1328       O  0.21395652  0.80151314  0.71469866    -0.85700
H1329       H  0.23819758  0.83626775  0.68347987    -0.03980
H1330       H  0.18644334  0.76563222  0.82608282    -0.04160
C1331       C  0.23223777  0.80901519  0.68878443     0.89390
C1332       C  0.19634307  0.69792725  0.72611435     0.89980
C1333       C  0.19230148  0.77257792  0.79906795     0.90020
H1334       H  0.33062821  0.81803749  0.76085576    -0.04140
O1335       O  0.32851629  0.74852077  0.71971689    -0.73160
Mg1336     Mg  0.21946796  0.83544795  0.75868774     1.58000
H1337       H  0.31560880  0.74255856  0.66826312    -0.04150
C1338       C  0.17250168  0.75949023  0.62557514     0.95010
O1339       O  0.13096429  0.81122741  0.72505002    -0.80390
C1340       C  0.13120066  0.83215588  0.75096127     0.95070
O1341       O  0.27156080  0.63715651  0.69224141    -0.80380
Mg1342     Mg  0.32997520  0.74261098  0.77999895     1.58180
O1343       O  0.16227122  0.77470363  0.65364020    -0.78710
O1344       O  0.30438139  0.77608240  0.86803795    -0.80410
C1345       C  0.09804644  0.84508576  0.76350914    -0.10920
C1346       C  0.06790382  0.85379617  0.76819855    -0.12480
C1347       C  0.83347743  0.94109642  0.87131795    -0.14080
C1348       C  0.80018852  0.94128339  0.88361982    -0.29260
H1349       H  0.84297832  0.96319307  0.85595361     0.14940
H1350       H  0.79025394  0.91777504  0.89637730     0.15520
C1351       C  0.87095371  0.83305169  0.93803852    -0.14080
C1352       C  0.88257545  0.79960718  0.93866484    -0.29260
H1353       H  0.85516204  0.84274696  0.95962845     0.14940
H1354       H  0.89593264  0.78940890  0.91566628     0.15520
C1355       C  0.93998094  0.87205581  0.83194242    -0.14080
C1356       C  0.94235375  0.88652920  0.79958260    -0.29260
H1357       H  0.96030826  0.85386088  0.84059310     0.14940
H1358       H  0.92069773  0.90237436  0.78969376     0.15520
C1359       C  0.88062223  0.30927343  0.08133148    -0.14080
C1360       C  0.86807601  0.30829485  0.04808773    -0.29260
H1361       H  0.89686786  0.28778591  0.09093585     0.14940
H1362       H  0.85432023  0.33112466  0.03771853     0.15520
C1363       C  0.91919714  0.37693292  0.18834447    -0.14080
C1364       C  0.95220753  0.36390676  0.19006707    -0.29260
H1365       H  0.90990563  0.39382784  0.20923362     0.14940
H1366       H  0.96237264  0.34940483  0.16780574     0.15520
C1367       C  0.81292697  0.41667078  0.11950657    -0.14080
C1368       C  0.81269892  0.44980344  0.13183620    -0.29260
H1369       H  0.79099425  0.40744953  0.10384583     0.14940
H1370       H  0.83605514  0.45941798  0.14505268     0.15520
C1371       C  0.07471079  0.36019708  0.23545560    -0.10920
C1372       C  0.10543493  0.35237085  0.23570304    -0.12480
C1373       C  0.23638956  0.57456568  0.64377825    -0.10920
C1374       C  0.23955803  0.60471281  0.65247835    -0.12480
C1375       C  0.14531280  0.26608536  0.42994393    -0.10920
C1376       C  0.15483907  0.26757472  0.39973758    -0.12480
C1377       C  0.13047154  0.32712919  0.55677401    -0.14080
C1378       C  0.11432464  0.29582114  0.55520129    -0.29260
H1379       H  0.14831440  0.33468191  0.53578950     0.14940
H1380       H  0.09898675  0.28681907  0.57757626     0.15520
C1381       C  0.18834779  0.42093755  0.62326129    -0.14080
C1382       C  0.18910845  0.45295173  0.63795435    -0.29260
H1383       H  0.21128585  0.41223112  0.60878085     0.14940
H1384       H  0.16533675  0.46281157  0.65031121     0.15520
C1385       C  0.06457271  0.38818586  0.69535066    -0.14080
C1386       C  0.06853821  0.37114616  0.66460500    -0.29260
H1387       H  0.08525531  0.40565253  0.70401699     0.14940
H1388       H  0.04837647  0.35255151  0.65711729     0.15520
C1389       C  0.98828199  0.88992261  0.67744682    -0.10920
C1390       C  0.99369437  0.89868687  0.64754401    -0.12480
C1391       C  0.09887392  0.14436243  0.50780958    -0.10920
C1392       C  0.10860422  0.17421629  0.51017163    -0.12480
C1393       C  0.35456645  0.23308717  0.06824081    -0.10920
C1394       C  0.34660648  0.23327483  0.09897265    -0.12480
C1395       C  0.36988756  0.16830518  0.94127980    -0.14080
C1396       C  0.38260376  0.20135141  0.94199546    -0.29260
H1397       H  0.35373365  0.15892621  0.96286852     0.14940
H1398       H  0.39629259  0.21127573  0.91895901     0.15520
C1399       C  0.44017286  0.12889270  0.83636055    -0.14080
C1400       C  0.44201305  0.11625760  0.80335098    -0.29260
H1401       H  0.46142592  0.14503521  0.84619886     0.14940
H1402       H  0.41944273  0.10234284  0.79297960     0.15520
C1403       C  0.26235018  0.90630210  0.84150288    -0.10920
C1404       C  0.26519068  0.93579176  0.85249582    -0.12480
C1405       C  0.29850236  0.06030610  0.88559895    -0.14080
C1406       C  0.33179794  0.06141246  0.87322177    -0.29260
H1407       H  0.28835886  0.08296875  0.89942644     0.14940
H1408       H  0.34133049  0.04008730  0.85704911     0.15520
C1409       C  0.14548279  0.77069407  0.56235267    -0.10920
C1410       C  0.15668500  0.76858417  0.59214691    -0.12480
C1411       C  0.23245076  0.07086916  0.35517044    -0.10920
C1412       C  0.23249750  0.10121719  0.34595699    -0.12480
C1413       C  0.20150188  0.94603048  0.38838529    -0.14080
C1414       C  0.17127573  0.94290016  0.37033861    -0.29260
H1415       H  0.21000654  0.92459905  0.40539138     0.14940
H1416       H  0.16438831  0.96287501  0.35097115     0.15520
C1417       C  0.12592142  0.83590811  0.43421969    -0.14080
C1418       C  0.11468710  0.80233757  0.43514139    -0.29260
H1419       H  0.13863266  0.84657120  0.45732760     0.14940
H1420       H  0.10361398  0.79136966  0.41131557     0.15520
C1421       C  0.04803958  0.86573245  0.31115792    -0.14080
C1422       C  0.08306229  0.87050698  0.31051273    -0.29260
H1423       H  0.03562036  0.86158036  0.33661480     0.14940
H1424       H  0.09623802  0.87584041  0.28580438     0.15520
C1425       C  0.90237387  0.81130293  0.48045491    -0.10920
C1426       C  0.91351676  0.84067589  0.48372783    -0.12480
C1427       C  0.87776848  0.68568537  0.41641750    -0.14080
C1428       C  0.86410391  0.68793918  0.44903904    -0.29260
H1429       H  0.89539247  0.70609363  0.40721896     0.14940
H1430       H  0.84863882  0.66624173  0.45913470     0.15520
C1431       C  0.91631396  0.61778905  0.31029901    -0.14080
C1432       C  0.94942160  0.63065944  0.30959550    -0.29260
H1433       H  0.90692401  0.60205874  0.28858304     0.14940
H1434       H  0.95934115  0.64391388  0.33273274     0.15520
C1435       C  0.80881084  0.57914230  0.37878019    -0.14080
C1436       C  0.80671249  0.54636454  0.36564833    -0.29260
H1437       H  0.78791347  0.58852327  0.39572552     0.14940
H1438       H  0.82890234  0.53612344  0.35098944     0.15520
C1439       C  0.55812037  0.87275577  0.17152213    -0.14080
C1440       C  0.55556044  0.88892804  0.20270297    -0.29260
H1441       H  0.53747985  0.85479639  0.16366599     0.14940
H1442       H  0.57762927  0.90434956  0.21203538     0.15520
C1443       C  0.63904328  0.81311075  0.04866539    -0.14080
C1444       C  0.62943742  0.81282531  0.08268085    -0.29260
H1445       H  0.64729750  0.83796380  0.03720886     0.14940
H1446       H  0.61945802  0.78881114  0.09427496     0.15520
C1447       C  0.69845116  0.93774019  0.11212886    -0.14080
C1448       C  0.66653474  0.93498626  0.12749769    -0.29260
H1449       H  0.70821297  0.91583247  0.09692788     0.14940
H1450       H  0.65782421  0.95635317  0.14409378     0.15520
C1451       C  0.07131827  0.64383812  0.26390463    -0.10920
C1452       C  0.10192529  0.65197614  0.26298376    -0.12480
C1453       C  0.42950771  0.85793996  0.23094947    -0.10920
C1454       C  0.39917342  0.84875603  0.22934297    -0.12480
C1455       C  0.16702548  0.55983994  0.87296459    -0.14080
C1456       C  0.20023892  0.55893669  0.88553109    -0.29260
H1457       H  0.15759169  0.53840776  0.85691761     0.14940
H1458       H  0.21021881  0.58180371  0.89909529     0.15520
C1459       C  0.06135961  0.62958450  0.83225876    -0.14080
C1460       C  0.06006949  0.61621508  0.79949900    -0.29260
H1461       H  0.04025968  0.64652613  0.84116236     0.14940
H1462       H  0.08258311  0.60159791  0.78990967     0.15520
C1463       C  0.14574532  0.73288228  0.06568580    -0.10920
C1464       C  0.15409019  0.73292949  0.09629862    -0.12480
C1465       C  0.11792512  0.70080929  0.93955764    -0.14080
C1466       C  0.12879119  0.66707443  0.93983506    -0.29260
H1467       H  0.10582285  0.71119088  0.91574493     0.14940
H1468       H  0.14332823  0.65689425  0.96228414     0.15520
C1469       C  0.73422637  0.09374654  0.15462488    -0.10920
C1470       C  0.73074117  0.06396394  0.14418306    -0.12480
C1471       C  0.75579914  0.39569504  0.34707481    -0.10920
C1472       C  0.75833217  0.42545114  0.35741878    -0.12480
C1473       C  0.23388466  0.43412706  0.85425978    -0.10920
C1474       C  0.23632065  0.40443204  0.84371821    -0.12480
C1475       C  0.22801243  0.93116745  0.14474978    -0.10920
C1476       C  0.22852229  0.90051697  0.15269419    -0.12480
C1477       C  0.16564801  0.05930409  0.12914089    -0.14080
C1478       C  0.19893535  0.05805769  0.11688617    -0.29260
H1479       H  0.15574743  0.03774028  0.14501068     0.14940
H1480       H  0.20950132  0.08097102  0.10355737     0.15520
C1481       C  0.15030550  0.23331825  0.93506012    -0.10920
C1482       C  0.16070733  0.23678927  0.90533519    -0.12480
C1483       C  0.11617828  0.19993373  0.05962793    -0.14080
C1484       C  0.12855022  0.16676310  0.06060634    -0.29260
H1485       H  0.10223337  0.20986945  0.08238851     0.14940
H1486       H  0.14488435  0.15729866  0.03930506     0.15520
C1487       C  0.01171907  0.10372728  0.32069905    -0.10920
C1488       C  0.00895066  0.09247611  0.35015505    -0.12480
C1489       C  0.93105121  0.14446102  0.23154131    -0.10920
C1490       C  0.90087708  0.15390124  0.23463885    -0.12480
C1491       C  0.05758035  0.11577919  0.19949773    -0.14080
C1492       C  0.05838487  0.12777134  0.16606957    -0.29260
H1493       H  0.08080719  0.10270799  0.20995240     0.14940
H1494       H  0.03659795  0.14335629  0.15602292     0.15520
C1495       C  0.84462798  0.23312604  0.40291275    -0.10920
C1496       C  0.85652874  0.23143311  0.43248527    -0.12480
C1497       C  0.06988054  0.14537145  0.74023840    -0.10920
C1498       C  0.09973930  0.15514706  0.74408548    -0.12480
C1499       C  0.88579335  0.16849374  0.55976407    -0.14080
C1500       C  0.88706055  0.20368622  0.56055559    -0.29260
H1501       H  0.88336056  0.15517330  0.53476410     0.14940
H1502       H  0.88851177  0.21614937  0.58618601     0.15520
C1503       C  0.91659730  0.12654160  0.68507136    -0.14080
C1504       C  0.95078242  0.13582816  0.68677629    -0.29260
H1505       H  0.90429332  0.11526134  0.70821366     0.14940
H1506       H  0.96319984  0.14560472  0.66294766     0.15520
C1507       C  0.80946706  0.04988454  0.63772349    -0.14080
C1508       C  0.81287698  0.07948931  0.61867704    -0.29260
H1509       H  0.83040694  0.04199216  0.65560512     0.14940
H1510       H  0.79351625  0.08552104  0.59843450     0.15520
C1511       C  0.90077253  0.64845476  0.99076683    -0.10920
C1512       C  0.89092316  0.67813313  0.98624380    -0.12480
C1513       C  0.98251790  0.60031791  0.18448943    -0.10920
C1514       C  0.98456710  0.58903689  0.15502974    -0.12480
C1515       C  0.01411890  0.40159431  0.81535861    -0.10920
C1516       C  0.00977900  0.41158083  0.84502269    -0.12480
C1517       C  0.09309857  0.35029026  0.00821923    -0.10920
C1518       C  0.10395274  0.32094324  0.01242395    -0.12480
C1519       C  0.27165169  0.40273443  0.15216391    -0.10920
C1520       C  0.27084806  0.43303544  0.14252872    -0.12480
C1521       C  0.17803320  0.51149429  0.10413942    -0.10920
C1522       C  0.14801120  0.50849834  0.09464243    -0.12480
C1523       C  0.33327905  0.55961973  0.11979021    -0.14080
C1524       C  0.29830093  0.56073364  0.11453501    -0.29260
H1525       H  0.34620530  0.53484905  0.12540441     0.14940
H1526       H  0.28614451  0.58626235  0.11016918     0.15520
C1527       C  0.45205767  0.63654173  0.19607885    -0.14080
C1528       C  0.42180663  0.61871155  0.19273966    -0.29260
H1529       H  0.46076108  0.65327946  0.17456514     0.14940
H1530       H  0.41481514  0.59956715  0.21283677     0.15520
C1531       C  0.35163636  0.73583122  0.93116158    -0.10920
C1532       C  0.34153212  0.74074968  0.90143947    -0.12480
C1533       C  0.37674816  0.68234530  0.08503788    -0.14080
C1534       C  0.36630976  0.68334488  0.05102827    -0.29260
H1535       H  0.38872367  0.70541469  0.09633130     0.14940
H1536       H  0.35578547  0.65958722  0.03957556     0.15520
C1537       C  0.81610918  0.48425877  0.89509815    -0.10920
C1538       C  0.84545229  0.48700300  0.90651994    -0.12480
C1539       C  0.42872552  0.35588815  0.76527224    -0.10920
C1540       C  0.39882338  0.34676367  0.76048143    -0.12480
C1541       C  0.69183609  0.41897343  0.87633501    -0.14080
C1542       C  0.69174838  0.45162565  0.86280191    -0.29260
H1543       H  0.71418757  0.40972915  0.89155382     0.14940
H1544       H  0.66797114  0.46136092  0.85012691     0.15520
C1545       C  0.58066002  0.37883594  0.81866896    -0.14080
C1546       C  0.55011945  0.36142404  0.81458478    -0.29260
H1547       H  0.58750187  0.39822658  0.79877098     0.14940
H1548       H  0.54168598  0.34315901  0.83487226     0.15520
C1549       C  0.65281059  0.26031999  0.09530956    -0.10920
C1550       C  0.64078171  0.26357483  0.06590555    -0.12480
C1551       C  0.60444704  0.29897563  0.94134325    -0.14080
C1552       C  0.62496902  0.32733079  0.93754773    -0.29260
H1553       H  0.58676383  0.29186028  0.92011245     0.14940
H1554       H  0.64415449  0.33244240  0.95808646     0.15520
C1555       C  0.64724313  0.98359894  0.90355947    -0.10920
C1556       C  0.67767052  0.98429369  0.89490272    -0.12480
C1557       C  0.35053889  0.00771107  0.09979789    -0.10920
C1558       C  0.32002772  0.00961379  0.10788077    -0.12480
C1559       C  0.59007544  0.14606912  0.98465795    -0.10920
C1560       C  0.59702897  0.17676757  0.98494968    -0.12480
C1561       C  0.39752520  0.81027101  0.02238928    -0.10920
C1562       C  0.40699328  0.84052919  0.02262528    -0.12480
C1563       C  0.35806402  0.76091574  0.42334727    -0.10920
C1564       C  0.35070104  0.76130537  0.39258886    -0.12480
C1565       C  0.48315756  0.89536092  0.82270538    -0.10920
C1566       C  0.48368803  0.90079887  0.85381656    -0.12480
C1567       C  0.43516942  0.87093858  0.67127950    -0.14080
C1568       C  0.43828013  0.89092528  0.70011209    -0.29260
H1569       H  0.45588101  0.85201882  0.66604510     0.14940
H1570       H  0.41681215  0.90817792  0.70749161     0.15520
C1571       C  0.37554992  0.80550088  0.57766861    -0.14080
C1572       C  0.36027614  0.80432070  0.54576237    -0.29260
H1573       H  0.39228445  0.78385073  0.58601144     0.14940
H1574       H  0.34607211  0.82722820  0.53613961     0.15520
C1575       C  0.26672638  0.06942100  0.64878982    -0.10920
C1576       C  0.26250486  0.09917837  0.65861813    -0.12480
C1577       C  0.19024512  0.98033467  0.60174033    -0.10920
C1578       C  0.16065415  0.98189953  0.59010984    -0.12480
C1579       C  0.31569296  0.94822408  0.63583195    -0.14080
C1580       C  0.31771535  0.91669125  0.61986002    -0.29260
H1581       H  0.33763152  0.95697431  0.65173811     0.14940
H1582       H  0.29644506  0.90916377  0.60245614     0.15520
C1583       C  0.43170910  0.14489785  0.26784117    -0.10920
C1584       C  0.40113522  0.15352521  0.26740262    -0.12480
C1585       C  0.51273574  0.09373164  0.14966018    -0.10920
C1586       C  0.51295949  0.10353284  0.17965448    -0.12480
C1587       C  0.62701687  0.16903639  0.44099277    -0.14080
C1588       C  0.61369687  0.20188056  0.44231563    -0.29260
H1589       H  0.64362624  0.15963692  0.46233184     0.14940
H1590       H  0.59953187  0.21207508  0.41960480     0.15520
C1591       C  0.55886087  0.13020990  0.33409914    -0.14080
C1592       C  0.55836525  0.11798235  0.30087581    -0.29260
H1593       H  0.53676401  0.14542813  0.34370131     0.14940
H1594       H  0.58183066  0.10525492  0.29084076     0.15520
C1595       C  0.84946418  0.00653035  0.40962090    -0.10920
C1596       C  0.81980081  0.01121127  0.39948500    -0.12480
C1597       C  0.69913597  0.06054425  0.38669651    -0.14080
C1598       C  0.66658852  0.06289919  0.37257508    -0.29260
H1599       H  0.70891438  0.08220392  0.40220228     0.14940
H1600       H  0.65764615  0.04251351  0.35498088     0.15520
C1601       C  0.17562514  0.01623374  0.89206737    -0.10920
C1602       C  0.14482662  0.01559426  0.89952340    -0.12480
C1603       C  0.02134397  0.90527690  0.15267726    -0.10920
C1604       C  0.02133932  0.89542889  0.18299767    -0.12480
C1605       C  0.90415168  0.15125827  0.01766692    -0.10920
C1606       C  0.89650311  0.18199436  0.01801640    -0.12480
C1607       C  0.82074144  0.98382210  0.10546045    -0.10920
C1608       C  0.85167574  0.98506450  0.09863439    -0.12480
C1609       C  0.97566230  0.09535046  0.84612331    -0.10920
C1610       C  0.97599054  0.10460701  0.81553566    -0.12480
C1611       C  0.10632326  0.82235786  0.98407808    -0.10920
C1612       C  0.09713596  0.85258294  0.98467443    -0.12480
C1613       C  0.52028761  0.39778205  0.68868767    -0.10920
C1614       C  0.51950481  0.40699401  0.65813914    -0.12480
C1615       C  0.65005945  0.51886442  0.40748923    -0.10920
C1616       C  0.68047009  0.51761450  0.39817615    -0.12480
C1617       C  0.39769382  0.64793902  0.51705853    -0.10920
C1618       C  0.38880482  0.67834518  0.51587356    -0.12480
C1619       C  0.60539141  0.32323686  0.48904554    -0.10920
C1620       C  0.59779343  0.35387143  0.49065919    -0.12480
C1621       C  0.34756616  0.48180598  0.60173535    -0.10920
C1622       C  0.31693147  0.48221766  0.61051142    -0.12480
C1623       C  0.48077914  0.59602709  0.35265337    -0.10920
C1624       C  0.48140892  0.60497230  0.32214377    -0.12480
C1625       C  0.59634273  0.65709880  0.01451820    -0.10920
C1626       C  0.60718126  0.68672340  0.01783948    -0.12480
C1627       C  0.65764653  0.48887956  0.09116594    -0.10920
C1628       C  0.68746494  0.48503340  0.10134591    -0.12480
C1629       C  0.40929744  0.35120610  0.99119682    -0.10920
C1630       C  0.39772822  0.32196977  0.98835924    -0.12480
C1631       C  0.35264434  0.51221208  0.90504354    -0.10920
C1632       C  0.32273886  0.51457156  0.89481642    -0.12480
C1633       C  0.39992614  0.65804669  0.74040094    -0.10920
C1634       C  0.42948472  0.64710247  0.73777514    -0.12480
C1635       C  0.51921443  0.60635956  0.81798612    -0.10920
C1636       C  0.51662816  0.59668266  0.84812895    -0.12480
C1637       C  0.68789921  0.57834744  0.62006159    -0.14080
C1638       C  0.69029318  0.54590249  0.63426605    -0.29260
H1639       H  0.70826855  0.58711066  0.60210137     0.14940
H1640       H  0.66863584  0.53590016  0.64990507     0.15520
C1641       C  0.62147008  0.68678656  0.58210692    -0.14080
C1642       C  0.63771112  0.69040920  0.55079691    -0.29260
H1643       H  0.60260863  0.70659481  0.59005473     0.14940
H1644       H  0.65459829  0.66961158  0.54139100     0.15520
C1645       C  0.58262411  0.61952314  0.68957815    -0.14080
C1646       C  0.55050865  0.63453841  0.69145338    -0.29260
H1647       H  0.59128091  0.60216161  0.71065177     0.14940
H1648       H  0.54074761  0.64943114  0.66905580     0.15520
C1649       C  0.65640953  0.01329432  0.59164702    -0.10920
C1650       C  0.68598218  0.01743716  0.60202997    -0.12480
C1651       C  0.49046568  0.10365407  0.68300387    -0.10920
C1652       C  0.49474457  0.09322079  0.65356561    -0.12480
C1653       C  0.50733709  0.90250425  0.35398774    -0.10920
C1654       C  0.50904965  0.89256885  0.32411521    -0.12480
C1655       C  0.59287893  0.84522596  0.51801849    -0.10920
C1656       C  0.60336539  0.81546229  0.52062587    -0.12480
C1657       C  0.32248029  0.99186027  0.39788459    -0.10920
C1658       C  0.35196146  0.99422486  0.40886186    -0.12480
C1659       C  0.09542553  0.65070993  0.48365401    -0.10920
C1660       C  0.10357075  0.68123392  0.48316315    -0.12480
C1661       C  0.01386773  0.60432250  0.67793088    -0.10920
C1662       C  0.01310209  0.59584129  0.64749620    -0.12480
C1663       C  0.81595049  0.51857869  0.60072893    -0.10920
C1664       C  0.84629338  0.51954248  0.59160957    -0.12480
C1665       C  0.98171620  0.40702177  0.34523705    -0.10920
C1666       C  0.98269201  0.39740113  0.31507648    -0.12480
C1667       C  0.89395373  0.32371441  0.51047174    -0.10920
C1668       C  0.90045984  0.35455555  0.50978457    -0.12480
C1669       C  0.17773020  0.48788334  0.39158934    -0.10920
C1670       C  0.14720261  0.48768496  0.39992627    -0.12480
C1671       C  0.26980027  0.59728266  0.34118239    -0.10920
C1672       C  0.26886875  0.56709819  0.35088913    -0.12480
C1673       C  0.33129331  0.43945430  0.36990160    -0.14080
C1674       C  0.29974054  0.44259887  0.38579081    -0.29260
H1675       H  0.33902202  0.45912424  0.35066931     0.14940
H1676       H  0.29052047  0.42173554  0.40285836     0.15520
C1677       C  0.35025835  0.26893230  0.56687899    -0.10920
C1678       C  0.33917558  0.26593729  0.59644303    -0.12480
C1679       C  0.41047739  0.15220230  0.49359821    -0.10920
C1680       C  0.39915400  0.18146081  0.49033836    -0.12480
C1681       C  0.37144157  0.33409397  0.44017532    -0.14080
C1682       C  0.38479307  0.30136036  0.44198805    -0.29260
H1683       H  0.35493739  0.34358170  0.46133030     0.14940
H1684       H  0.39899951  0.29124865  0.41949469     0.15520
C1685       C  0.59556078  0.33730493  0.26439728    -0.10920
C1686       C  0.56604076  0.34828462  0.26829397    -0.12480
C1687       C  0.49003807  0.39744556  0.17983530    -0.10920
C1688       C  0.49443582  0.40810396  0.15038797    -0.12480
C1689       C  0.43891416  0.37121387  0.33231037    -0.14080
C1690       C  0.44223042  0.38673521  0.30050822    -0.29260
H1691       H  0.45871172  0.35236369  0.34068885     0.14940
H1692       H  0.42135487  0.40367057  0.29091951     0.15520
C1693       C  0.84501681  0.73973498  0.59933474    -0.10920
C1694       C  0.85549356  0.73533787  0.56990134    -0.12480
C1695       C  0.74055284  0.60281456  0.84368595    -0.10920
C1696       C  0.73646037  0.57311619  0.85329393    -0.12480
C1697       C  0.56246240  0.85434117  0.73260065    -0.10920
C1698       C  0.59154766  0.84154303  0.73421995    -0.12480
C1699       C  0.75890043  0.89878787  0.65400960    -0.10920
C1700       C  0.76412009  0.92850185  0.64511614    -0.12480
C1701       C  0.65378247  0.76240158  0.89720584    -0.10920
C1702       C  0.64528648  0.76640324  0.92731508    -0.12480
C1703       C  0.90610919  0.66273892  0.76373817    -0.10920
C1704       C  0.93561552  0.65119286  0.76600195    -0.12480
C1705       C  0.76324539  0.09654374  0.84458194    -0.10920
C1706       C  0.76569808  0.06678424  0.85525528    -0.12480
C1707       C  0.59740936  0.16038159  0.76732686    -0.10920
C1708       C  0.56756268  0.15021708  0.77117278    -0.12480
C1709       C  0.64499911  0.23206545  0.56818649    -0.10920
C1710       C  0.65620901  0.23440791  0.59776717    -0.12480
C1711       C  0.74462172  0.39533679  0.64970268    -0.10920
C1712       C  0.74009023  0.42514873  0.64006981    -0.12480
C1713       C  0.85158929  0.25809228  0.89625983    -0.10920
C1714       C  0.86125169  0.26217109  0.92612558    -0.12480
C1715       C  0.94050637  0.34802004  0.72760289    -0.10920
C1716       C  0.91123259  0.33581479  0.73037101    -0.12480
C1717       C  0.76733681  0.57120220  0.14670498    -0.10920
C1718       C  0.76368757  0.60063106  0.15735901    -0.12480
C1719       C  0.83890363  0.76586862  0.09345606    -0.10920
C1720       C  0.84941302  0.76819891  0.06369292    -0.12480
C1721       C  0.60286252  0.65367233  0.24537754    -0.10920
C1722       C  0.57321436  0.64317871  0.24307959    -0.12480
C1723       C  0.65932270  0.74397143  0.40109113    -0.10920
C1724       C  0.64902372  0.73996982  0.43067699    -0.12480
C1725       C  0.89788953  0.84951517  0.25555496    -0.10920
C1726       C  0.92801131  0.85788967  0.25998277    -0.12480
C1727       C  0.73128526  0.93737969  0.34845642    -0.10920
C1728       C  0.73419919  0.90820910  0.33677883    -0.12480
loop_ 
_geom_bond_atom_site_label_1 
_geom_bond_atom_site_label_2 
_geom_bond_distance 
_geom_bond_site_symmetry_2 
_ccdc_geom_bond_type 
O1           Mg3   2.118       .  S
O1           Mg9   2.137       .  S
O1           C36   1.238       .  S
C2           O15   1.238       .  S
C2           O39   1.272       .  A
C2           H41   1.082       .  S
Mg3          O32   2.132       .  S
Mg3          O47   2.313       .  S
Mg3          O43   2.248       .  S
Mg3          O14   2.297       .  S
O4          Mg46   2.133       .  S
O4          Mg29   2.120       .  S
O4           C25   1.238       .  S
O5           C36   1.271       .  A
O5          Mg29   2.293       .  S
C6            O8   1.269       .  A
C6           O20   1.272       .  A
C6         C1725   1.427       .  S
O7           C35   1.270       .  A
O7           Mg9   2.291       .  S
O8          Mg40   2.236       .  S
Mg9          O15   2.127       .  S
Mg9          O23   2.245       .  S
Mg9          O11   2.301       .  S
C10          O48   1.270       .  A
C10          O16   1.273       .  A
C10        C1728   1.435       .  S
O11          C18   1.272       .  A
H12          C25   1.082       .  S
C13          O27   1.239       .  S
C13          O28   1.272       .  A
C13          H38   1.083       .  S
O14          C37   1.272       .  A
O15         Mg29   2.136       .  S
O16         Mg46   2.314       .  S
C17          O30   1.269       .  A
C17          O22   1.271       .  A
C17        C1723   1.426       .  S
C18          O45   1.268       .  A
C18        C1721   1.425       .  S
Mg19         O26   2.124       .  S
Mg19         O27   2.133       .  S
Mg19         O20   2.303       .  S
Mg19         O21   2.297       .  S
Mg19         O48   2.251       .  S
O21          C25   1.272       .  A
O22         Mg29   2.295       .  S
O23          C42   1.270       .  A
O24          C44   1.273       .  A
O24         Mg40   2.307       .  S
O26         Mg40   2.131       .  S
O26          C37   1.238       .  S
O27         Mg46   2.115       .  S
O28         Mg40   2.299       .  S
Mg29         O45   2.232       .  S
O30         Mg46   2.239       .  S
H31          C36   1.083       .  S
O32         Mg40   2.116       .  S
O32          C35   1.238       .  S
H33          C35   1.082       .  S
H34          C37   1.082       .  S
O39         Mg46   2.302       .  S
C42          O47   1.274       .  A
C42        C1718   1.431       .  S
O43          C44   1.271       .  A
C44        C1719   1.431       .  S
O49         Mg51   2.118       .  S
O49         Mg57   2.132       .  S
O49          C84   1.240       .  S
C50          O63   1.239       .  S
C50          O87   1.273       .  A
C50          H89   1.082       .  S
Mg51         O80   2.129       .  S
Mg51         O95   2.329       .  S
Mg51         O91   2.247       .  S
Mg51         O62   2.306       .  S
O52         Mg94   2.134       .  S
O52         Mg77   2.131       .  S
O52          C73   1.238       .  S
O53          C84   1.272       .  A
O53         Mg77   2.296       .  S
C54          O56   1.269       .  A
C54          O68   1.274       .  A
C54        C1713   1.432       .  S
O55          C83   1.272       .  A
O55         Mg57   2.298       .  S
O56         Mg88   2.243       .  S
Mg57         O63   2.131       .  S
Mg57         O71   2.261       .  S
Mg57         O59   2.320       .  S
C58          O96   1.273       .  A
C58          O64   1.277       .  A
C58        C1716   1.445       .  S
O59          C66   1.275       .  A
H60          C73   1.082       .  S
C61          O75   1.240       .  S
C61          O76   1.273       .  A
C61          H86   1.082       .  S
O62          C85   1.274       .  A
O63         Mg77   2.134       .  S
O64         Mg94   2.338       .  S
C65          O78   1.270       .  A
C65          O70   1.274       .  A
C65        C1711   1.431       .  S
C66          O93   1.270       .  A
C66        C1710   1.435       .  S
Mg67         O74   2.138       .  S
Mg67         O75   2.135       .  S
Mg67         O68   2.314       .  S
Mg67         O69   2.296       .  S
Mg67         O96   2.268       .  S
O69          C73   1.271       .  A
O70         Mg77   2.311       .  S
O71          C90   1.272       .  A
O72          C92   1.274       .  A
O72         Mg88   2.318       .  S
O74         Mg88   2.135       .  S
O74          C85   1.240       .  S
O75         Mg94   2.120       .  S
O76         Mg88   2.299       .  S
Mg77         O93   2.250       .  S
O78         Mg94   2.246       .  S
H79          C84   1.082       .  S
O80         Mg88   2.126       .  S
O80          C83   1.239       .  S
H81          C83   1.082       .  S
H82          C85   1.082       .  S
O87         Mg94   2.304       .  S
C90          O95   1.276       .  A
C90        C1707   1.440       .  S
O91          C92   1.270       .  A
C92        C1705   1.435       .  S
O97         Mg99   2.123       .  S
O97        Mg105   2.134       .  S
O97         C132   1.239       .  S
C98         O111   1.237       .  S
C98         O135   1.270       .  A
C98         H137   1.082       .  S
Mg99        O128   2.134       .  S
Mg99        O143   2.296       .  S
Mg99        O139   2.250       .  S
Mg99        O110   2.293       .  S
O100       Mg142   2.132       .  S
O100       Mg125   2.104       .  S
O100        C121   1.239       .  S
O101        C132   1.272       .  A
O101       Mg125   2.302       .  S
C102        O104   1.268       .  A
C102        O116   1.270       .  A
C102       C1695   1.422       .  S
O103        C131   1.272       .  A
O103       Mg105   2.291       .  S
O104       Mg136   2.233       .  S
Mg105       O111   2.127       .  S
Mg105       O119   2.239       .  S
Mg105       O107   2.281       .  S
C106        O144   1.268       .  A
C106        O112   1.272       .  A
C106       C1701   1.426       .  S
O107        C114   1.269       .  A
H108        C121   1.082       .  S
C109        O123   1.239       .  S
C109        O124   1.273       .  A
C109        H134   1.082       .  S
O110        C133   1.270       .  A
O111       Mg125   2.135       .  S
O112       Mg142   2.300       .  S
C113        O126   1.272       .  A
C113        O118   1.276       .  A
C113       C1698   1.440       .  S
C114        O141   1.269       .  A
C114       C1699   1.421       .  S
Mg115       O122   2.123       .  S
Mg115       O123   2.136       .  S
Mg115       O116   2.286       .  S
Mg115       O117   2.292       .  S
Mg115       O144   2.232       .  S
O117        C121   1.271       .  A
O118       Mg125   2.327       .  S
O119        C138   1.268       .  A
O120        C140   1.275       .  A
O120       Mg136   2.325       .  S
O122       Mg136   2.131       .  S
O122        C133   1.237       .  S
O123       Mg142   2.132       .  S
O124       Mg136   2.305       .  S
Mg125       O141   2.233       .  S
O126       Mg142   2.259       .  S
H127        C132   1.082       .  S
O128       Mg136   2.105       .  S
O128        C131   1.239       .  S
H129        C131   1.082       .  S
H130        C133   1.082       .  S
O135       Mg142   2.294       .  S
C138        O143   1.271       .  A
C138       C1693   1.427       .  S
O139        C140   1.271       .  A
C140       C1703   1.436       .  S
C145       C1687   1.430       .  S
C145        C146   1.386       .  A
C145        C150   1.397       .  A
C146        H151   1.088       .  S
C146        C147   1.390       .  A
C147       C1686   1.438       .  S
C147        C148   1.408       .  A
C148        H152   1.083       .  S
C148        C149   1.420       .  A
C149        C150   1.409       .  A
C149       C1690   1.492       .  S
C150        H153   1.085       .  S
C154       C1677   1.438       .  S
C154        C155   1.407       .  A
C154        C159   1.391       .  A
C155        H160   1.082       .  S
C155        C156   1.419       .  A
C156        C157   1.408       .  A
C156       C1682   1.492       .  S
C157        H161   1.086       .  S
C157        C158   1.396       .  A
C158       C1680   1.430       .  S
C158        C159   1.387       .  A
C159        H162   1.088       .  S
C163        C164   1.405       .  A
C163        C168   1.412       .  A
C163       C1689   1.499       .  S
C164        H169   1.082       .  S
C164        C165   1.410       .  A
C165        C166   1.403       .  A
C165       C1681   1.494       .  S
C166        H170   1.081       .  S
C166        C167   1.410       .  A
C167        C168   1.407       .  A
C167       C1673   1.497       .  S
C168        H171   1.080       .  S
C172       C1669   1.436       .  S
C172        C173   1.398       .  A
C172        C177   1.392       .  A
C173        H178   1.085       .  S
C173        C174   1.408       .  A
C174        C175   1.416       .  A
C174       C1674   1.490       .  S
C175        H179   1.083       .  S
C175        C176   1.407       .  A
C176       C1672   1.440       .  S
C176        C177   1.395       .  A
C177        H180   1.087       .  S
O181       Mg183   2.129       .  S
O181       Mg189   2.141       .  S
O181        C216   1.238       .  S
C182        O195   1.238       .  S
C182        O219   1.272   1_655  A
C182        H221   1.082       .  S
Mg183       O212   2.142       .  S
Mg183       O227   2.295       .  S
Mg183       O223   2.265       .  S
Mg183       O194   2.297       .  S
O184       Mg226   2.141   1_655  S
O184       Mg209   2.120       .  S
O184        C205   1.238       .  S
O185        C216   1.272       .  A
O185       Mg209   2.300       .  S
C186        O188   1.271       .  A
C186        O200   1.273       .  A
C186       C1670   1.431       .  S
O187        C215   1.273   1_655  A
O187       Mg189   2.303       .  S
O188       Mg220   2.263       .  S
Mg189       O195   2.120       .  S
Mg189       O203   2.257       .  S
Mg189       O191   2.311       .  S
C190        O228   1.270       .  A
C190        O196   1.274       .  A
C190       C1659   1.434       .  S
O191        C198   1.275       .  A
H192        C205   1.082       .  S
C193        O207   1.238       .  S
C193        O208   1.271       .  A
C193        H218   1.082       .  S
O194        C217   1.271       .  A
O195       Mg209   2.140       .  S
O196       Mg226   2.303       .  S
C197        O210   1.270       .  A
C197        O202   1.274   1_455  A
C197       C1662   1.432       .  S
C198        O225   1.270       .  A
C198       C1664   1.435       .  S
Mg199       O206   2.126       .  S
Mg199       O207   2.142       .  S
Mg199       O200   2.295       .  S
Mg199       O201   2.295       .  S
Mg199       O228   2.262       .  S
O201        C205   1.271   1_455  A
O202       Mg209   2.305       .  S
O203        C222   1.269       .  A
O204        C224   1.276   1_455  A
O204       Mg220   2.314       .  S
O206       Mg220   2.143       .  S
O206        C217   1.238   1_455  S
O207       Mg226   2.124       .  S
O208       Mg220   2.299       .  S
Mg209       O225   2.261       .  S
O210       Mg226   2.256       .  S
H211        C216   1.082       .  S
O212       Mg220   2.125   1_655  S
O212        C215   1.239   1_655  S
H213        C215   1.082       .  S
H214        C217   1.082       .  S
O219       Mg226   2.298       .  S
C222        O227   1.273       .  A
C222       C1668   1.429       .  S
O223        C224   1.270       .  A
C224       C1665   1.437       .  S
O229       Mg231   2.116       .  S
O229       Mg237   2.134       .  S
O229        C264   1.238       .  S
C230        O243   1.237       .  S
C230        O267   1.270       .  A
C230        H269   1.082       .  S
Mg231       O260   2.130       .  S
Mg231       O275   2.322       .  S
Mg231       O271   2.252       .  S
Mg231       O242   2.301   1_565  S
O232       Mg274   2.139       .  S
O232       Mg257   2.122   1_545  S
O232        C253   1.237       .  S
O233        C264   1.270       .  A
O233       Mg257   2.290       .  S
C234        O236   1.268       .  A
C234        O248   1.270       .  A
C234       C1652   1.428       .  S
O235        C263   1.271       .  A
O235       Mg237   2.293       .  S
O236       Mg268   2.240       .  S
Mg237       O243   2.121       .  S
Mg237       O251   2.247       .  S
Mg237       O239   2.311       .  S
C238        O276   1.268       .  A
C238        O244   1.271       .  A
C238       C1679   1.425       .  S
O239        C246   1.274       .  A
H240        C253   1.082       .  S
C241        O255   1.239       .  S
C241        O256   1.272       .  A
C241        H266   1.082       .  S
O242        C265   1.273       .  A
O243       Mg257   2.136       .  S
O244       Mg274   2.298       .  S
C245        O258   1.268       .  A
C245        O250   1.271   1_545  A
C245       C1658   1.423   1_545  S
C246        O273   1.268       .  A
C246       C1653   1.428       .  S
Mg247       O254   2.117       .  S
Mg247       O255   2.136       .  S
Mg247       O248   2.296       .  S
Mg247       O249   2.296       .  S
Mg247       O276   2.233       .  S
O249        C253   1.271       .  A
O250       Mg257   2.293       .  S
O251        C270   1.271       .  A
O252        C272   1.270       .  A
O252       Mg268   2.291       .  S
O254       Mg268   2.131       .  S
O254        C265   1.240       .  S
O255       Mg274   2.116       .  S
O256       Mg268   2.298       .  S
Mg257       O273   2.233       .  S
O258       Mg274   2.232       .  S
H259        C264   1.082       .  S
O260       Mg268   2.117   1_565  S
O260        C263   1.238       .  S
H261        C263   1.083       .  S
H262        C265   1.082       .  S
O267       Mg274   2.293   1_565  S
C270        O275   1.276       .  A
C270       C1655   1.434       .  S
O271        C272   1.271   1_565  A
C272       C1649   1.429       .  S
C277        C278   1.404       .  A
C277        C282   1.410       .  A
C277       C1641   1.497       .  S
C278        H283   1.081       .  S
C278        C279   1.410       .  A
C279        C280   1.407       .  A
C279       C1645   1.496       .  S
C280        H284   1.082       .  S
C280        C281   1.410       .  A
C281        C282   1.405       .  A
C281       C1637   1.495       .  S
C282        H285   1.080       .  S
C286       C1635   1.438       .  S
C286        C287   1.407       .  A
C286        C291   1.392       .  A
C287        H292   1.083       .  S
C287        C288   1.417       .  A
C288        C289   1.409       .  A
C288       C1646   1.490       .  S
C289        H293   1.086       .  S
C289        C290   1.397       .  A
C290       C1634   1.433       .  S
C290        C291   1.388       .  A
C291        H294   1.088       .  S
C295       C1656   1.437       .  S
C295        C296   1.391       .  A
C295        C300   1.406       .  A
C296        H301   1.088       .  S
C296        C297   1.387       .  A
C297       C1724   1.430       .  S
C297        C298   1.397       .  A
C298        H302   1.085       .  S
C298        C299   1.409       .  A
C299        C300   1.418       .  A
C299       C1642   1.489       .  S
C300        H303   1.083       .  S
C304       C1663   1.438       .  S
C304        C305   1.391       .  A
C304        C309   1.405       .  A
C305        H310   1.087       .  S
C305        C306   1.390       .  A
C306       C1712   1.435       .  S
C306        C307   1.401       .  A
C307        H311   1.085       .  S
C307        C308   1.411       .  A
C308        C309   1.418       .  A
C308       C1638   1.494       .  S
C309        H312   1.082       .  S
O313       Mg315   2.124       .  S
O313       Mg321   2.130       .  S
O313        C348   1.239       .  S
C314        O327   1.239       .  S
C314        O351   1.272       .  A
C314        H353   1.082       .  S
Mg315       O344   2.134       .  S
Mg315       O359   2.312       .  S
Mg315       O355   2.240       .  S
Mg315       O326   2.300       .  S
O316       Mg358   2.135       .  S
O316       Mg341   2.134       .  S
O316        C337   1.238       .  S
O317        C348   1.272       .  A
O317       Mg341   2.299   1_554  S
C318        O320   1.270   1_556  A
C318        O332   1.274       .  A
C318       C1629   1.434       .  S
O319        C347   1.273       .  A
O319       Mg321   2.306       .  S
O320       Mg352   2.248       .  S
Mg321       O327   2.118   1_554  S
Mg321       O335   2.250       .  S
Mg321       O323   2.332       .  S
C322        O360   1.269       .  A
C322        O328   1.275       .  A
C322       C1631   1.431       .  S
O323        C330   1.276       .  A
H324        C337   1.082       .  S
C325        O339   1.237       .  S
C325        O340   1.270       .  A
C325        H350   1.082       .  S
O326        C349   1.272       .  A
O327       Mg341   2.130       .  S
O328       Mg358   2.320       .  S
C329        O342   1.271       .  A
C329        O334   1.275       .  A
C329       C1636   1.434       .  S
C330        O357   1.273   1_554  A
C330       C1625   1.444       .  S
Mg331       O338   2.119   1_556  S
Mg331       O339   2.135       .  S
Mg331       O332   2.317       .  S
Mg331       O333   2.298       .  S
Mg331       O360   2.238       .  S
O333        C337   1.272       .  A
O334       Mg341   2.322       .  S
O335        C354   1.270       .  A
O336        C356   1.270       .  A
O336       Mg352   2.293       .  S
O338       Mg352   2.137       .  S
O338        C349   1.239       .  S
O339       Mg358   2.124       .  S
O340       Mg352   2.292   1_556  S
Mg341       O357   2.269       .  S
O342       Mg358   2.247       .  S
H343        C348   1.082       .  S
O344       Mg352   2.130       .  S
O344        C347   1.239       .  S
H345        C347   1.082       .  S
H346        C349   1.082       .  S
O351       Mg358   2.296       .  S
C354        O359   1.273       .  A
C354       C1627   1.434       .  S
O355        C356   1.268       .  A
C356       C1688   1.426       .  S
O361       Mg363   2.128       .  S
O361       Mg369   2.139       .  S
O361        C396   1.239       .  S
C362        O375   1.240       .  S
C362        O399   1.273       .  A
C362        H401   1.082       .  S
Mg363       O392   2.141       .  S
Mg363       O407   2.327       .  S
Mg363       O403   2.268       .  S
Mg363       O374   2.305       .  S
O364       Mg406   2.139       .  S
O364       Mg389   2.132       .  S
O364        C385   1.238       .  S
O365        C396   1.273       .  A
O365       Mg389   2.301       .  S
C366        O368   1.271       .  A
C366        O380   1.276       .  A
C366       C1623   1.437       .  S
O367        C395   1.273       .  A
O367       Mg369   2.306       .  S
O368       Mg400   2.268       .  S
Mg369       O375   2.133       .  S
Mg369       O383   2.284       .  S
Mg369       O371   2.336       .  S
C370        O408   1.273       .  A
C370        O376   1.276       .  A
C370       C1615   1.443       .  S
O371        C378   1.279       .  A
H372        C385   1.082       .  S
C373        O387   1.239       .  S
C373        O388   1.272       .  A
C373        H398   1.082       .  S
O374        C397   1.273       .  A
O375       Mg389   2.140       .  S
O376       Mg406   2.317       .  S
C377        O390   1.269       .  A
C377        O382   1.275       .  A
C377       C1620   1.433       .  S
C378        O405   1.271       .  A
C378       C1614   1.444       .  S
Mg379       O386   2.136       .  S
Mg379       O387   2.140       .  S
Mg379       O380   2.315       .  S
Mg379       O381   2.299       .  S
Mg379       O408   2.284       .  S
O381        C385   1.272       .  A
O382       Mg389   2.312       .  S
O383        C402   1.273       .  A
O384        C404   1.275       .  A
O384       Mg400   2.312       .  S
O386       Mg400   2.145       .  S
O386        C397   1.239       .  S
O387       Mg406   2.119       .  S
O388       Mg400   2.297       .  S
Mg389       O405   2.271       .  S
O390       Mg406   2.252       .  S
H391        C396   1.082       .  S
O392       Mg400   2.137       .  S
O392        C395   1.239       .  S
H393        C395   1.082       .  S
H394        C397   1.082       .  S
O399       Mg406   2.304       .  S
C402        O407   1.277       .  A
C402       C1621   1.446       .  S
O403        C404   1.271       .  A
C404       C1617   1.437       .  S
O409       Mg411   2.134       .  S
O409       Mg417   2.143   1_554  S
O409        C444   1.239   1_565  S
C410        O423   1.238   1_655  S
C410        O447   1.272   1_565  A
C410        H449   1.082       .  S
Mg411       O440   2.142   1_455  S
Mg411       O455   2.304       .  S
Mg411       O451   2.273       .  S
Mg411       O422   2.295       .  S
O412       Mg454   2.138       .  S
O412       Mg437   2.121   1_655  S
O412        C433   1.240   1_656  S
O413        C444   1.273   1_556  A
O413       Mg437   2.306       .  S
C414        O416   1.270       .  A
C414        O428   1.275   1_565  A
C414       C1608   1.434       .  S
O415        C443   1.272   1_455  A
O415       Mg417   2.298       .  S
O416       Mg448   2.262       .  S
Mg417       O423   2.130       .  S
Mg417       O431   2.255       .  S
Mg417       O419   2.302       .  S
C418        O456   1.270       .  A
C418        O424   1.277   1_554  A
C418       C1605   1.437       .  S
O419        C426   1.273   1_565  A
H420        C433   1.082   1_556  S
C421        O435   1.240   1_565  S
C421        O436   1.273   1_556  A
C421        H446   1.082       .  S
O422        C445   1.271   1_565  A
O423       Mg437   2.140   1_565  S
O424       Mg454   2.321       .  S
C425        O438   1.274       .  A
C425        O430   1.277   1_655  A
C425       C1609   1.447       .  S
C426        O453   1.270       .  A
C426       C1602   1.434       .  S
Mg427       O434   2.126       .  S
Mg427       O435   2.139   1_554  S
Mg427       O428   2.308       .  S
Mg427       O429   2.302       .  S
Mg427       O456   2.259       .  S
O429        C433   1.273   1_655  A
O430       Mg437   2.329       .  S
O431        C450   1.269       .  A
O432        C452   1.278   1_655  A
O432       Mg448   2.328       .  S
O434       Mg448   2.137   1_545  S
O434        C445   1.237   1_655  S
O435       Mg454   2.136       .  S
O436       Mg448   2.306       .  S
Mg437       O453   2.263       .  S
O438       Mg454   2.287       .  S
H439        C444   1.082       .  S
O440       Mg448   2.118       .  S
O440        C443   1.239   1_554  S
H441        C443   1.082   1_554  S
H442        C445   1.082       .  S
O447       Mg454   2.302       .  S
C450        O455   1.274   1_556  A
C450       C1612   1.431       .  S
O451        C452   1.272       .  A
C452       C1603   1.442       .  S
C457       C1596   1.435       .  S
C457        C458   1.387   1_545  A
C457        C462   1.400       .  A
C458        H463   1.087       .  S
C458        C459   1.390       .  A
C459       C1727   1.438       .  S
C459        C460   1.407       .  A
C460        H464   1.082       .  S
C460        C461   1.419   1_565  A
C461        C462   1.412       .  A
C461       C1597   1.496       .  S
C462        H465   1.085       .  S
C466        C467   1.410       .  A
C466        C471   1.406       .  A
C466       C1591   1.496       .  S
C467        H472   1.083       .  S
C467        C468   1.405       .  A
C468        C469   1.411       .  A
C468       C1598   1.498       .  S
C469        H473   1.082       .  S
C469        C470   1.407       .  A
C470        C471   1.411       .  A
C470       C1587   1.497       .  S
C471        H474   1.083       .  S
C475       C1583   1.440       .  S
C475        C476   1.409       .  A
C475        C480   1.392       .  A
C476        H481   1.082       .  S
C476        C477   1.418       .  A
C477        C478   1.410       .  A
C477       C1592   1.495       .  S
C478        H482   1.085       .  S
C478        C479   1.398       .  A
C479       C1586   1.434       .  S
C479        C480   1.389       .  A
C480        H483   1.088       .  S
C484       C1709   1.438       .  S
C484        C485   1.391       .  A
C484        C489   1.407       .  A
C485        H490   1.088       .  S
C485        C486   1.388       .  A
C486       C1619   1.437       .  S
C486        C487   1.401       .  A
C487        H491   1.086       .  S
C487        C488   1.412       .  A
C488        C489   1.419       .  A
C488       C1588   1.496       .  S
C489        H492   1.082       .  S
C493       C1575   1.442       .  S
C493        C494   1.405       .  A
C493        C498   1.390       .  A
C494        H499   1.085       .  S
C494        C495   1.415   1_545  A
C495        C496   1.421       .  A
C495       C1579   1.504       .  S
C496        H500   1.082       .  S
C496        C497   1.408       .  A
C497       C1577   1.444       .  S
C497        C498   1.392   1_565  A
C498        H501   1.087       .  S
C502        C503   1.407       .  A
C502        C507   1.395       .  A
C502       C1571   1.491       .  S
C503        H508   1.084       .  S
C503        C504   1.412       .  A
C504        C505   1.420       .  A
C504       C1580   1.505       .  S
C505        H509   1.079       .  S
C505        C506   1.417       .  A
C506        C507   1.400       .  A
C506       C1567   1.495       .  S
C507        H510   1.086       .  S
C511       C1697   1.443       .  S
C511        C512   1.407       .  A
C511        C516   1.392       .  A
C512        H517   1.083       .  S
C512        C513   1.420       .  A
C513        C514   1.408       .  A
C513       C1568   1.495       .  S
C514        H518   1.085       .  S
C514        C515   1.400       .  A
C515       C1565   1.434       .  S
C515        C516   1.391       .  A
C516        H519   1.088       .  S
C520       C1618   1.441       .  S
C520        C521   1.407       .  A
C520        C525   1.393       .  A
C521        H526   1.084       .  S
C521        C522   1.418       .  A
C522        C523   1.407       .  A
C522       C1572   1.492       .  S
C523        H527   1.085       .  S
C523        C524   1.399       .  A
C524       C1563   1.433       .  S
C524        C525   1.391       .  A
C525        H528   1.087       .  S
O529       Mg531   2.122   1_565  S
O529       Mg537   2.140       .  S
O529        C564   1.239   1_565  S
C530        O543   1.238   1_554  S
C530        O567   1.272       .  A
C530        H569   1.082       .  S
Mg531       O560   2.145   1_556  S
Mg531       O575   2.293       .  S
Mg531       O571   2.254       .  S
Mg531       O542   2.294       .  S
O532       Mg574   2.137       .  S
O532       Mg557   2.117   1_554  S
O532        C553   1.238   1_554  S
O533        C564   1.272   1_565  A
O533       Mg557   2.305       .  S
C534        O536   1.268       .  A
C534        O548   1.273       .  A
C534       C1585   1.430       .  S
O535        C563   1.271   1_556  A
O535       Mg537   2.297       .  S
O536       Mg568   2.251       .  S
Mg537       O543   2.129       .  S
Mg537       O551   2.260       .  S
Mg537       O539   2.289       .  S
C538        O576   1.268       .  A
C538        O544   1.276   1_545  A
C538       C1557   1.429       .  S
O539        C546   1.272       .  A
H540        C553   1.082       .  S
C541        O555   1.238       .  S
C541        O556   1.271   1_565  A
C541        H566   1.082       .  S
O542        C565   1.270       .  A
O543       Mg557   2.141       .  S
O544       Mg574   2.311       .  S
C545        O558   1.272       .  A
C545        O550   1.277   1_554  A
C545       C1562   1.442       .  S
C546        O573   1.270       .  A
C546       C1566   1.429       .  S
Mg547       O554   2.114       .  S
Mg547       O555   2.142   1_545  S
Mg547       O548   2.298       .  S
Mg547       O549   2.297       .  S
Mg547       O576   2.241       .  S
O549        C553   1.271   1_544  A
O550       Mg557   2.324       .  S
O551        C570   1.269       .  A
O552        C572   1.272   1_554  A
O552       Mg568   2.289       .  S
O554       Mg568   2.139       .  S
O554        C565   1.237   1_554  S
O555       Mg574   2.129       .  S
O556       Mg568   2.297       .  S
Mg557       O573   2.259       .  S
O558       Mg574   2.274       .  S
H559        C564   1.082       .  S
O560       Mg568   2.116       .  S
O560        C563   1.238   1_545  S
H561        C563   1.082       .  S
H562        C565   1.082   1_554  S
O567       Mg574   2.301       .  S
C570        O575   1.272   1_565  A
C570       C1555   1.431       .  S
O571        C572   1.269       .  A
C572       C1559   1.427       .  S
C577       C1560   1.432       .  S
C577        C578   1.397       .  A
C577        C582   1.390   1_556  A
C578        H583   1.086       .  S
C578        C579   1.405       .  A
C579        C580   1.424   1_556  A
C579       C1551   1.497       .  S
C580        H584   1.083       .  S
C580        C581   1.413       .  A
C581       C1550   1.449       .  S
C581        C582   1.393       .  A
C582        H585   1.088       .  S
C586        C587   1.422       .  A
C586        C591   1.399       .  A
C586       C1552   1.497       .  S
C587        H592   1.080       .  S
C587        C588   1.424       .  A
C588        C589   1.407       .  A
C588       C1545   1.504       .  S
C589        H593   1.084       .  S
C589        C590   1.402       .  A
C590        C591   1.392       .  A
C590       C1541   1.482       .  S
C591        H594   1.086       .  S
C595       C1539   1.435       .  S
C595        C596   1.389       .  A
C595        C600   1.402       .  A
C596        H601   1.088       .  S
C596        C597   1.390       .  A
C597       C1613   1.446       .  S
C597        C598   1.412       .  A
C598        H602   1.083       .  S
C598        C599   1.424       .  A
C599        C600   1.411       .  A
C599       C1546   1.502       .  S
C600        H603   1.085       .  S
C604       C1696   1.426       .  S
C604        C605   1.397       .  A
C604        C609   1.387       .  A
C605        H610   1.085       .  S
C605        C606   1.408       .  A
C606        C607   1.417       .  A
C606       C1542   1.487       .  S
C607        H611   1.081       .  S
C607        C608   1.401       .  A
C608       C1537   1.431       .  S
C608        C609   1.388       .  A
C609        H612   1.088       .  S
C613       C1561   1.445       .  S
C613        C614   1.410       .  A
C613        C618   1.391   1_554  A
C614        H619   1.081       .  S
C614        C615   1.423       .  A
C615        C616   1.414   1_554  A
C615       C1534   1.506       .  S
C616        H620   1.085       .  S
C616        C617   1.403       .  A
C617       C1531   1.439       .  S
C617        C618   1.390       .  A
C618        H621   1.088       .  S
C622       C1722   1.431       .  S
C622        C623   1.391       .  A
C622        C627   1.397       .  A
C623        H628   1.088       .  S
C623        C624   1.392       .  A
C624       C1624   1.440       .  S
C624        C625   1.407       .  A
C625        H629   1.083       .  S
C625        C626   1.417       .  A
C626        C627   1.406       .  A
C626       C1527   1.488       .  S
C627        H630   1.086       .  S
C631        C632   1.413       .  A
C631        C636   1.398       .  A
C631       C1523   1.486       .  S
C632        H637   1.083       .  S
C632        C633   1.419       .  A
C633        C634   1.411       .  A
C633       C1533   1.502       .  S
C634        H638   1.083       .  S
C634        C635   1.408       .  A
C635        C636   1.396       .  A
C635       C1528   1.489       .  S
C636        H639   1.086       .  S
C640       C1520   1.445       .  S
C640        C641   1.409       .  A
C640        C645   1.391       .  A
C641        H646   1.081       .  S
C641        C642   1.423       .  A
C642        C643   1.409       .  A
C642       C1524   1.500       .  S
C643        H647   1.085       .  S
C643        C644   1.400       .  A
C644       C1521   1.434       .  S
C644        C645   1.391       .  A
C645        H648   1.087       .  S
O649       Mg651   2.118   1_455  S
O649       Mg657   2.136       .  S
O649        C684   1.239       .  S
C650        O663   1.239       .  S
C650        O687   1.272       .  A
C650        H689   1.082       .  S
Mg651       O680   2.133       .  S
Mg651       O695   2.317       .  S
Mg651       O691   2.243       .  S
Mg651       O662   2.298   1_554  S
O652       Mg694   2.133       .  S
O652       Mg677   2.120   1_556  S
O652        C673   1.238       .  S
O653        C684   1.271       .  A
O653       Mg677   2.295       .  S
C654        O656   1.269       .  A
C654        O668   1.271       .  A
C654       C1538   1.428       .  S
O655        C683   1.271       .  A
O655       Mg657   2.294   1_655  S
O656       Mg688   2.243       .  S
Mg657       O663   2.127       .  S
Mg657       O671   2.251       .  S
Mg657       O659   2.311       .  S
C658        O696   1.269       .  A
C658        O664   1.274   1_655  A
C658       C1516   1.433   1_655  S
O659        C666   1.273       .  A
H660        C673   1.082       .  S
C661        O675   1.239       .  S
C661        O676   1.272       .  A
C661        H686   1.082       .  S
O662        C685   1.272       .  A
O663       Mg677   2.135       .  S
O664       Mg694   2.314       .  S
C665        O678   1.269       .  A
C665        O670   1.271   1_556  A
C665       C1517   1.427   1_556  S
C666        O693   1.268       .  A
C666       C1522   1.429       .  S
Mg667       O674   2.122       .  S
Mg667       O675   2.133       .  S
Mg667       O668   2.297       .  S
Mg667       O669   2.295   1_655  S
Mg667       O696   2.245       .  S
O669        C673   1.271       .  A
O670       Mg677   2.296       .  S
O671        C690   1.271   1_455  A
O672        C692   1.272   1_556  A
O672       Mg688   2.302       .  S
O674       Mg688   2.134       .  S
O674        C685   1.239       .  S
O675       Mg694   2.114   1_655  S
O676       Mg688   2.295       .  S
Mg677       O693   2.234       .  S
O678       Mg694   2.240       .  S
H679        C684   1.082       .  S
O680       Mg688   2.121   1_554  S
O680        C683   1.238       .  S
H681        C683   1.082       .  S
H682        C685   1.082       .  S
O687       Mg694   2.301   1_554  S
C690        O695   1.274       .  A
C690       C1514   1.434       .  S
O691        C692   1.270       .  A
C692       C1511   1.428   1_554  S
C697        C698   1.407       .  A
C697        C702   1.421       .  A
C697       C1503   1.502       .  S
C698        H703   1.083       .  S
C698        C699   1.406       .  A
C699        C700   1.396       .  A
C699       C1508   1.485       .  S
C700        H704   1.086       .  S
C700        C701   1.397       .  A
C701        C702   1.416       .  A
C701       C1499   1.488       .  S
C702        H705   1.083       .  S
C706       C1497   1.438       .  S
C706        C707   1.390       .  A
C706        C711   1.401       .  A
C707        H712   1.088       .  S
C707        C708   1.392   1_455  A
C708       C1610   1.450       .  S
C708        C709   1.413       .  A
C709        H713   1.081       .  S
C709        C710   1.425       .  A
C710        C711   1.412   1_655  A
C710       C1504   1.506       .  S
C711        H714   1.085       .  S
C715       C1650   1.431       .  S
C715        C716   1.387   1_545  A
C715        C720   1.403       .  A
C716        H721   1.088       .  S
C716        C717   1.385       .  A
C717       C1700   1.425       .  S
C717        C718   1.396       .  A
C718        H722   1.085       .  S
C718        C719   1.407   1_565  A
C719        C720   1.417       .  A
C719       C1507   1.483       .  S
C720        H723   1.083       .  S
C724       C1667   1.434       .  S
C724        C725   1.398       .  A
C724        C729   1.390       .  A
C725        H730   1.086       .  S
C725        C726   1.408       .  A
C726        C727   1.425       .  A
C726       C1500   1.500       .  S
C727        H731   1.081       .  S
C727        C728   1.413       .  A
C728       C1496   1.449       .  S
C728        C729   1.393       .  A
C729        H732   1.088       .  S
C733       C1487   1.432       .  S
C733        C734   1.397       .  A
C733        C738   1.388   1_455  A
C734        H739   1.085       .  S
C734        C735   1.409       .  A
C735        C736   1.420   1_455  A
C735       C1491   1.493       .  S
C736        H740   1.083       .  S
C736        C737   1.409       .  A
C737       C1489   1.440       .  S
C737        C738   1.391       .  A
C738        H741   1.088       .  S
C742       C1481   1.436       .  S
C742        C743   1.389       .  A
C742        C747   1.406       .  A
C743        H748   1.088       .  S
C743        C744   1.386   1_556  A
C744       C1518   1.431       .  S
C744        C745   1.398       .  A
C745        H749   1.085       .  S
C745        C746   1.410       .  A
C746        C747   1.419   1_554  A
C746       C1483   1.492       .  S
C747        H750   1.082       .  S
C751        C752   1.406       .  A
C751        C756   1.409       .  A
C751       C1477   1.495       .  S
C752        H757   1.083       .  S
C752        C753   1.411       .  A
C753        C754   1.404       .  A
C753       C1492   1.495       .  S
C754        H758   1.083       .  S
C754        C755   1.410       .  A
C755        C756   1.405       .  A
C755       C1484   1.493       .  S
C756        H759   1.083       .  S
C760       C1475   1.437       .  S
C760        C761   1.390       .  A
C760        C765   1.406       .  A
C761        H766   1.087       .  S
C761        C762   1.387   1_565  A
C762       C1558   1.433       .  S
C762        C763   1.400       .  A
C763        H767   1.085       .  S
C763        C764   1.411       .  A
C764        C765   1.418   1_545  A
C764       C1478   1.494       .  S
C765        H768   1.082       .  S
O769       Mg771   2.126       .  S
O769       Mg777   2.135       .  S
O769        C804   1.239       .  S
C770        O783   1.239       .  S
C770        O807   1.272       .  A
C770        H809   1.082       .  S
Mg771       O800   2.132       .  S
Mg771       O815   2.331       .  S
Mg771       O811   2.255       .  S
Mg771       O782   2.302       .  S
O772       Mg814   2.133       .  S
O772       Mg797   2.124       .  S
O772        C793   1.239       .  S
O773        C804   1.273       .  A
O773       Mg797   2.300       .  S
C774        O776   1.270       .  A
C774        O788   1.273       .  A
C774       C1540   1.431       .  S
O775        C803   1.272       .  A
O775       Mg777   2.297       .  S
O776       Mg808   2.246       .  S
Mg777       O783   2.128       .  S
Mg777       O791   2.250       .  S
Mg777       O779   2.314       .  S
C778        O816   1.271       .  A
C778        O784   1.276       .  A
C778       C1474   1.438       .  S
O779        C786   1.274       .  A
H780        C793   1.082       .  S
C781        O795   1.239       .  S
C781        O796   1.272       .  A
C781        H806   1.083       .  S
O782        C805   1.272       .  A
O783       Mg797   2.132       .  S
O784       Mg814   2.328       .  S
C785        O798   1.271       .  A
C785        O790   1.273       .  A
C785       C1482   1.433       .  S
C786        O813   1.269       .  A
C786       C1498   1.433       .  S
Mg787       O794   2.129       .  S
Mg787       O795   2.131       .  S
Mg787       O788   2.309       .  S
Mg787       O789   2.297       .  S
Mg787       O816   2.251       .  S
O789        C793   1.272       .  A
O790       Mg797   2.310       .  S
O791        C810   1.270       .  A
O792        C812   1.274       .  A
O792       Mg808   2.316       .  S
O794       Mg808   2.132       .  S
O794        C805   1.239       .  S
O795       Mg814   2.120       .  S
O796       Mg808   2.299       .  S
Mg797       O813   2.244       .  S
O798       Mg814   2.250       .  S
H799        C804   1.083       .  S
O800       Mg808   2.123       .  S
O800        C803   1.238       .  S
H801        C803   1.082       .  S
H802        C805   1.082       .  S
O807       Mg814   2.301       .  S
C810        O815   1.276       .  A
C810       C1576   1.438       .  S
O811        C812   1.271       .  A
C812       C1678   1.435       .  S
O817       Mg819   2.126       .  S
O817       Mg825   2.131       .  S
O817        C852   1.240       .  S
C818        O831   1.240       .  S
C818        O855   1.274       .  A
C818        H857   1.082       .  S
Mg819       O848   2.135       .  S
Mg819       O863   2.342       .  S
Mg819       O859   2.257       .  S
Mg819       O830   2.306       .  S
O820       Mg862   2.134       .  S
O820       Mg845   2.140       .  S
O820        C841   1.238       .  S
O821        C852   1.273       .  A
O821       Mg845   2.300       .  S
C822        O824   1.270       .  A
C822        O836   1.276       .  A
C822       C1471   1.438       .  S
O823        C851   1.273       .  A
O823       Mg825   2.306       .  S
O824       Mg856   2.249       .  S
Mg825       O831   2.135       .  S
Mg825       O839   2.269       .  S
Mg825       O827   2.342       .  S
C826        O864   1.273       .  A
C826        O832   1.279       .  A
C826       C1495   1.446       .  S
O827        C834   1.278       .  A
H828        C841   1.082       .  S
C829        O843   1.239       .  S
C829        O844   1.273       .  A
C829        H854   1.082       .  S
O830        C853   1.273       .  A
O831       Mg845   2.133       .  S
O832       Mg862   2.349       .  S
C833        O846   1.272       .  A
C833        O838   1.276       .  A
C833       C1490   1.438       .  S
C834        O861   1.273       .  A
C834       C1469   1.448       .  S
Mg835       O842   2.134       .  S
Mg835       O843   2.136       .  S
Mg835       O836   2.331       .  S
Mg835       O837   2.299       .  S
Mg835       O864   2.264       .  S
O837        C841   1.272       .  A
O838       Mg845   2.328       .  S
O839        C858   1.273       .  A
O840        C860   1.273       .  A
O840       Mg856   2.312       .  S
O842       Mg856   2.135       .  S
O842        C853   1.239       .  S
O843       Mg862   2.128       .  S
O844       Mg856   2.299       .  S
Mg845       O861   2.273       .  S
O846       Mg862   2.255       .  S
H847        C852   1.082       .  S
O848       Mg856   2.138       .  S
O848        C851   1.240       .  S
H849        C851   1.082       .  S
H850        C853   1.082       .  S
O855       Mg862   2.305       .  S
C858        O863   1.278       .  A
C858       C1549   1.446       .  S
O859        C860   1.271       .  A
C860       C1685   1.436       .  S
C865       C1463   1.438       .  S
C865        C866   1.391       .  A
C865        C870   1.407       .  A
C866        H871   1.087       .  S
C866        C867   1.389   1_554  A
C867       C1611   1.436       .  S
C867        C868   1.400       .  A
C868        H872   1.086       .  S
C868        C869   1.411       .  A
C869        C870   1.418   1_556  A
C869       C1465   1.496       .  S
C870        H873   1.082       .  S
C874        C875   1.410       .  A
C874        C879   1.405       .  A
C874       C1455   1.496       .  S
C875        H880   1.083       .  S
C875        C876   1.405       .  A
C876        C877   1.410       .  A
C876       C1466   1.495       .  S
C877        H881   1.083       .  S
C877        C878   1.406       .  A
C878        C879   1.411       .  A
C878       C1459   1.496       .  S
C879        H882   1.082       .  S
C883       C1661   1.436       .  S
C883        C884   1.389   1_455  A
C883        C888   1.400       .  A
C884        H889   1.088       .  S
C884        C885   1.392       .  A
C885       C1704   1.439       .  S
C885        C886   1.407       .  A
C886        H890   1.082       .  S
C886        C887   1.418   1_655  A
C887        C888   1.411       .  A
C887       C1460   1.495       .  S
C888        H891   1.085       .  S
C892       C1473   1.441       .  S
C892        C893   1.393       .  A
C892        C897   1.408       .  A
C893        H898   1.087       .  S
C893        C894   1.390       .  A
C894       C1632   1.436       .  S
C894        C895   1.399       .  A
C895        H899   1.085       .  S
C895        C896   1.411       .  A
C896        C897   1.419       .  A
C896       C1456   1.494       .  S
C897        H900   1.082       .  S
O901       Mg903   2.120       .  S
O901       Mg909   2.137       .  S
O901        C936   1.238       .  S
C902        O915   1.238       .  S
C902        O939   1.270       .  A
C902        H941   1.082       .  S
Mg903       O932   2.140       .  S
Mg903       O947   2.313       .  S
Mg903       O943   2.256       .  S
Mg903       O914   2.304       .  S
O904       Mg946   2.144       .  S
O904       Mg929   2.122       .  S
O904        C925   1.238       .  S
O905        C936   1.272       .  A
O905       Mg929   2.298       .  S
C906        O908   1.272       .  A
C906        O920   1.274       .  A
C906       C1454   1.438       .  S
O907        C935   1.273       .  A
O907       Mg909   2.303       .  S
O908       Mg940   2.276       .  S
Mg909       O915   2.116       .  S
Mg909       O923   2.255       .  S
Mg909       O911   2.306       .  S
C910        O948   1.269       .  A
C910        O916   1.273       .  A
C910       C1564   1.428       .  S
O911        C918   1.275       .  A
H912        C925   1.082       .  S
C913        O927   1.238       .  S
C913        O928   1.272       .  A
C913        H938   1.082       .  S
O914        C937   1.273       .  A
O915       Mg929   2.139       .  S
O916       Mg946   2.293       .  S
C917        O930   1.271       .  A
C917        O922   1.275       .  A
C917       C1671   1.437       .  S
C918        O945   1.271       .  A
C918       C1452   1.434       .  S
Mg919       O926   2.124       .  S
Mg919       O927   2.144       .  S
Mg919       O920   2.307       .  S
Mg919       O921   2.298       .  S
Mg919       O948   2.255       .  S
O921        C925   1.272       .  A
O922       Mg929   2.309       .  S
O923        C942   1.269       .  A
O924        C944   1.276       .  A
O924       Mg940   2.316       .  S
O926       Mg940   2.139       .  S
O926        C937   1.239       .  S
O927       Mg946   2.133       .  S
O928       Mg940   2.303       .  S
Mg929       O945   2.263       .  S
O930       Mg946   2.270       .  S
H931        C936   1.082       .  S
O932       Mg940   2.129       .  S
O932        C935   1.239       .  S
H933        C935   1.082       .  S
H934        C937   1.082       .  S
O939       Mg946   2.292       .  S
C942        O947   1.275       .  A
C942       C1464   1.435       .  S
O943        C944   1.269       .  A
C944       C1476   1.434       .  S
C949       C1470   1.450       .  S
C949        C950   1.392       .  A
C949        C954   1.416       .  A
C950        H955   1.087       .  S
C950        C951   1.388   1_545  A
C951       C1607   1.439       .  S
C951        C952   1.401       .  A
C952        H956   1.085       .  S
C952        C953   1.412       .  A
C953        C954   1.425   1_565  A
C953       C1447   1.506       .  S
C954        H957   1.082       .  S
C958        C959   1.424       .  A
C958        C963   1.412       .  A
C958       C1448   1.509       .  S
C959        H964   1.081       .  S
C959        C960   1.417       .  A
C960        C961   1.397       .  A
C960       C1444   1.493       .  S
C961        H965   1.086       .  S
C961        C962   1.395       .  A
C962        C963   1.408       .  A
C962       C1439   1.488       .  S
C963        H966   1.084       .  S
C967       C1702   1.431       .  S
C967        C968   1.387       .  A
C967        C972   1.398       .  A
C968        H973   1.088       .  S
C968        C969   1.389   1_556  A
C969       C1626   1.446       .  S
C969        C970   1.412       .  A
C970        H974   1.081       .  S
C970        C971   1.427       .  A
C971        C972   1.410   1_554  A
C971       C1443   1.503       .  S
C972        H975   1.085       .  S
C976       C1453   1.442       .  S
C976        C977   1.406       .  A
C976        C981   1.394       .  A
C977        H982   1.084       .  S
C977        C978   1.417       .  A
C978        C979   1.406       .  A
C978       C1440   1.490       .  S
C979        H983   1.085       .  S
C979        C980   1.398       .  A
C980       C1654   1.433       .  S
C980        C981   1.392       .  A
C981        H984   1.087       .  S
C985        C986   1.413       .  A
C985        C990   1.408       .  A
C985       C1435   1.501       .  S
C986        H991   1.082       .  S
C986        C987   1.408       .  A
C987        C988   1.409       .  A
C987       C1431   1.498       .  S
C988        H992   1.082       .  S
C988        C989   1.404       .  A
C989        C990   1.411       .  A
C989       C1427   1.497       .  S
C990        H993   1.082       .  S
C994       C1451   1.439       .  S
C994        C995   1.389       .  A
C994        C999   1.401       .  A
C995       H1000   1.087       .  S
C995        C996   1.392   1_455  A
C996       C1513   1.438       .  S
C996        C997   1.406       .  A
C997       H1001   1.082       .  S
C997        C998   1.417       .  A
C998        C999   1.413   1_655  A
C998       C1432   1.496       .  S
C999       H1002   1.085       .  S
C1003      C1694   1.431       .  S
C1003      C1004   1.398       .  A
C1003      C1008   1.386       .  A
C1004      H1009   1.085       .  S
C1004      C1005   1.410       .  A
C1005      C1006   1.420       .  A
C1005      C1428   1.495       .  S
C1006      H1010   1.083       .  S
C1006      C1007   1.408       .  A
C1007      C1425   1.438       .  S
C1007      C1008   1.390       .  A
C1008      H1011   1.088       .  S
C1012      C1616   1.446       .  S
C1012      C1013   1.395       .  A
C1012      C1017   1.409       .  A
C1013      H1018   1.087       .  S
C1013      C1014   1.393       .  A
C1014      C1472   1.443       .  S
C1014      C1015   1.403       .  A
C1015      H1019   1.085       .  S
C1015      C1016   1.413       .  A
C1016      C1017   1.419       .  A
C1016      C1436   1.500       .  S
C1017      H1020   1.082       .  S
C1021      C1726   1.432       .  S
C1021      C1022   1.389       .  A
C1021      C1026   1.400       .  A
C1022      H1027   1.088       .  S
C1022      C1023   1.389   1_655  A
C1023      C1604   1.444       .  S
C1023      C1024   1.409       .  A
C1024      H1028   1.080       .  S
C1024      C1025   1.424       .  A
C1025      C1026   1.410   1_455  A
C1025      C1421   1.500       .  S
C1026      H1029   1.085       .  S
C1030      C1031   1.397       .  A
C1030      C1035   1.413       .  A
C1030      C1422   1.486       .  S
C1031      H1036   1.086       .  S
C1031      C1032   1.396       .  A
C1032      C1033   1.409       .  A
C1032      C1414   1.488       .  S
C1033      H1037   1.084       .  S
C1033      C1034   1.411       .  A
C1034      C1035   1.420       .  A
C1034      C1417   1.504       .  S
C1035      H1038   1.082       .  S
C1039      C1411   1.440       .  S
C1039      C1040   1.407       .  A
C1039      C1044   1.391       .  A
C1040      H1045   1.083       .  S
C1040      C1041   1.418   1_545  A
C1041      C1042   1.405       .  A
C1041      C1413   1.488       .  S
C1042      H1046   1.085       .  S
C1042      C1043   1.396       .  A
C1043      C1657   1.428       .  S
C1043      C1044   1.390   1_565  A
C1044      H1047   1.087       .  S
C1048      C1409   1.447       .  S
C1048      C1049   1.413       .  A
C1048      C1053   1.393       .  A
C1049      H1054   1.081       .  S
C1049      C1050   1.424       .  A
C1050      C1051   1.412       .  A
C1050      C1418   1.505       .  S
C1051      H1055   1.086       .  S
C1051      C1052   1.401       .  A
C1052      C1660   1.439       .  S
C1052      C1053   1.390       .  A
C1053      H1056   1.087       .  S
C1057      C1404   1.441       .  S
C1057      C1058   1.392       .  A
C1057      C1062   1.410       .  A
C1058      H1063   1.087       .  S
C1058      C1059   1.389   1_565  A
C1059      C1601   1.438       .  S
C1059      C1060   1.401       .  A
C1060      H1064   1.085       .  S
C1060      C1061   1.412       .  A
C1061      C1062   1.420   1_545  A
C1061      C1405   1.499       .  S
C1062      H1065   1.082       .  S
C1066      C1067   1.408       .  A
C1066      C1071   1.412       .  A
C1066      C1406   1.501       .  S
C1067      H1072   1.083       .  S
C1067      C1068   1.412       .  A
C1068      C1069   1.405       .  A
C1068      C1399   1.499       .  S
C1069      H1073   1.083       .  S
C1069      C1070   1.410       .  A
C1070      C1071   1.407       .  A
C1070      C1395   1.498       .  S
C1071      H1074   1.082       .  S
C1075      C1630   1.438       .  S
C1075      C1076   1.401       .  A
C1075      C1080   1.390   1_556  A
C1076      H1081   1.086       .  S
C1076      C1077   1.412       .  A
C1077      C1078   1.419   1_556  A
C1077      C1396   1.497       .  S
C1078      H1082   1.082       .  S
C1078      C1079   1.408       .  A
C1079      C1393   1.441       .  S
C1079      C1080   1.392       .  A
C1080      H1083   1.087       .  S
C1084      C1708   1.442       .  S
C1084      C1085   1.390       .  A
C1084      C1089   1.411       .  A
C1085      H1090   1.088       .  S
C1085      C1086   1.386       .  A
C1086      C1651   1.432       .  S
C1086      C1087   1.398       .  A
C1087      H1091   1.085       .  S
C1087      C1088   1.411       .  A
C1088      C1089   1.422       .  A
C1088      C1400   1.497       .  S
C1089      H1092   1.083       .  S
O1093     Mg1095   2.119       .  S
O1093     Mg1101   2.131       .  S
O1093      C1128   1.240       .  S
C1094      O1107   1.237       .  S
C1094      O1131   1.270       .  A
C1094      H1133   1.082       .  S
Mg1095     O1124   2.133       .  S
Mg1095     O1139   2.312       .  S
Mg1095     O1135   2.245       .  S
Mg1095     O1106   2.301   1_565  S
O1096     Mg1138   2.135       .  S
O1096     Mg1121   2.116   1_545  S
O1096      C1117   1.238       .  S
O1097      C1128   1.273       .  A
O1097     Mg1121   2.302   1_655  S
C1098      O1100   1.268   1_455  A
C1098      O1112   1.271       .  A
C1098      C1488   1.427       .  S
O1099      C1127   1.272       .  A
O1099     Mg1101   2.295       .  S
O1100     Mg1132   2.237       .  S
Mg1101     O1107   2.128   1_655  S
Mg1101     O1115   2.254       .  S
Mg1101     O1103   2.295       .  S
C1102      O1140   1.268       .  A
C1102      O1108   1.274       .  A
C1102      C1391   1.428       .  S
O1103      C1110   1.271   1_655  A
H1104      C1117   1.082       .  S
C1105      O1119   1.239       .  S
C1105      O1120   1.272       .  A
C1105      H1130   1.082       .  S
O1106      C1129   1.272       .  A
O1107     Mg1121   2.133       .  S
O1108     Mg1138   2.311       .  S
C1109      O1122   1.272   1_565  A
C1109      O1114   1.277       .  A
C1109      C1578   1.440       .  S
C1110      O1137   1.271       .  A
C1110      C1390   1.427   1_455  S
Mg1111     O1118   2.125   1_455  S
Mg1111     O1119   2.139       .  S
Mg1111     O1112   2.299       .  S
Mg1111     O1113   2.292       .  S
Mg1111     O1140   2.234       .  S
O1113      C1117   1.271       .  A
O1114     Mg1121   2.334       .  S
O1115      C1134   1.270       .  A
O1116      C1136   1.273   1_545  A
O1116     Mg1132   2.308       .  S
O1118     Mg1132   2.134       .  S
O1118      C1129   1.238       .  S
O1119     Mg1138   2.130       .  S
O1120     Mg1132   2.300   1_455  S
Mg1121     O1137   2.245       .  S
O1122     Mg1138   2.257       .  S
H1123      C1128   1.082       .  S
O1124     Mg1132   2.115   1_565  S
O1124      C1127   1.239       .  S
H1125      C1127   1.082       .  S
H1126      C1129   1.082       .  S
O1131     Mg1138   2.294   1_565  S
C1134      O1139   1.273       .  A
C1134      C1426   1.435       .  S
O1135      C1136   1.269       .  A
C1136      C1595   1.431   1_565  S
C1141      C1515   1.437       .  S
C1141      C1142   1.389   1_455  A
C1141      C1146   1.401       .  A
C1142      H1147   1.087       .  S
C1142      C1143   1.391       .  A
C1143      C1715   1.448       .  S
C1143      C1144   1.413   1_655  A
C1144      H1148   1.083   1_455  S
C1144      C1145   1.425       .  A
C1145      C1146   1.412       .  A
C1145      C1385   1.505       .  S
C1146      H1149   1.085       .  S
C1150      C1151   1.424       .  A
C1150      C1155   1.410       .  A
C1150      C1386   1.506       .  S
C1151      H1156   1.081       .  S
C1151      C1152   1.419       .  A
C1152      C1153   1.400       .  A
C1152      C1381   1.497       .  S
C1153      H1157   1.086       .  S
C1153      C1154   1.396       .  A
C1154      C1155   1.405       .  A
C1154      C1377   1.489       .  S
C1155      H1158   1.083       .  S
C1159      C1392   1.433       .  S
C1159      C1160   1.399       .  A
C1159      C1164   1.392       .  A
C1160      H1165   1.086       .  S
C1160      C1161   1.408       .  A
C1161      C1162   1.416       .  A
C1161      C1378   1.490       .  S
C1162      H1166   1.083       .  S
C1162      C1163   1.404       .  A
C1163      C1375   1.439       .  S
C1163      C1164   1.392       .  A
C1164      H1167   1.087       .  S
C1168      C1622   1.449       .  S
C1168      C1169   1.410       .  A
C1168      C1173   1.392       .  A
C1169      H1174   1.082       .  S
C1169      C1170   1.424       .  A
C1170      C1171   1.411       .  A
C1170      C1382   1.504       .  S
C1171      H1175   1.085       .  S
C1171      C1172   1.402       .  A
C1172      C1373   1.438       .  S
C1172      C1173   1.392       .  A
C1173      H1176   1.087       .  S
O1177     Mg1179   2.127       .  S
O1177     Mg1185   2.139       .  S
O1177      C1212   1.239       .  S
C1178      O1191   1.239       .  S
C1178      O1215   1.273       .  A
C1178      H1217   1.082       .  S
Mg1179     O1208   2.144       .  S
Mg1179     O1223   2.318       .  S
Mg1179     O1219   2.264       .  S
Mg1179     O1190   2.300       .  S
O1180     Mg1222   2.137       .  S
O1180     Mg1205   2.125       .  S
O1180      C1201   1.238       .  S
O1181      C1212   1.273       .  A
O1181     Mg1205   2.304       .  S
C1182      O1184   1.270       .  A
C1182      O1196   1.275       .  A
C1182      C1376   1.435       .  S
O1183      C1211   1.272       .  A
O1183     Mg1185   2.303       .  S
O1184     Mg1216   2.266       .  S
Mg1185     O1191   2.133       .  S
Mg1185     O1199   2.278       .  S
Mg1185     O1187   2.319       .  S
C1186      O1224   1.271       .  A
C1186      O1192   1.276       .  A
C1186      C1412   1.437       .  S
O1187      C1194   1.276       .  A
H1188      C1201   1.082       .  S
C1189      O1203   1.238       .  S
C1189      O1204   1.271       .  A
C1189      H1214   1.082       .  S
O1190      C1213   1.272       .  A
O1191     Mg1205   2.139       .  S
O1192     Mg1222   2.317       .  S
C1193      O1206   1.270       .  A
C1193      O1198   1.276       .  A
C1193      C1584   1.437       .  S
C1194      O1221   1.271       .  A
C1194      C1394   1.438       .  S
Mg1195     O1202   2.124       .  S
Mg1195     O1203   2.141       .  S
Mg1195     O1196   2.306       .  S
Mg1195     O1197   2.297       .  S
Mg1195     O1224   2.263       .  S
O1197      C1201   1.271       .  A
O1198     Mg1205   2.318       .  S
O1199      C1218   1.272       .  A
O1200      C1220   1.273       .  A
O1200     Mg1216   2.298       .  S
O1202     Mg1216   2.143       .  S
O1202      C1213   1.238       .  S
O1203     Mg1222   2.120       .  S
O1204     Mg1216   2.295       .  S
Mg1205     O1221   2.265       .  S
O1206     Mg1222   2.262       .  S
H1207      C1212   1.082       .  S
O1208     Mg1216   2.133       .  S
O1208      C1211   1.239       .  S
H1209      C1211   1.082       .  S
H1210      C1213   1.082       .  S
O1215     Mg1222   2.305       .  S
C1218      O1223   1.276       .  A
C1218      C1519   1.442       .  S
O1219      C1220   1.271       .  A
C1220      C1372   1.433       .  S
C1225      C1226   1.412       .  A
C1225      C1230   1.407       .  A
C1225      C1359   1.498       .  S
C1226      H1231   1.083       .  S
C1226      C1227   1.407       .  A
C1227      C1228   1.410       .  A
C1227      C1367   1.496       .  S
C1228      H1232   1.083       .  S
C1228      C1229   1.405       .  A
C1229      C1230   1.411       .  A
C1229      C1363   1.497       .  S
C1230      H1233   1.082       .  S
C1234      C1606   1.440       .  S
C1234      C1235   1.390   1_554  A
C1234      C1239   1.408       .  A
C1235      H1240   1.088       .  S
C1235      C1236   1.389       .  A
C1236      C1714   1.436       .  S
C1236      C1237   1.401       .  A
C1237      H1241   1.085       .  S
C1237      C1238   1.412   1_556  A
C1238      C1239   1.419       .  A
C1238      C1360   1.496       .  S
C1239      H1242   1.083       .  S
C1243      C1666   1.441       .  S
C1243      C1244   1.393   1_655  A
C1243      C1248   1.407       .  A
C1244      H1249   1.087       .  S
C1244      C1245   1.391       .  A
C1245      C1371   1.437       .  S
C1245      C1246   1.400       .  A
C1246      H1250   1.086       .  S
C1246      C1247   1.410   1_455  A
C1247      C1248   1.418       .  A
C1247      C1364   1.495       .  S
C1248      H1251   1.082       .  S
C1252      C1717   1.435       .  S
C1252      C1253   1.387       .  A
C1252      C1257   1.400       .  A
C1253      H1258   1.087       .  S
C1253      C1254   1.390       .  A
C1254      C1628   1.437       .  S
C1254      C1255   1.407       .  A
C1255      H1259   1.082       .  S
C1255      C1256   1.419       .  A
C1256      C1257   1.412       .  A
C1256      C1368   1.495       .  S
C1257      H1260   1.085       .  S
C1261      C1262   1.408       .  A
C1261      C1266   1.406       .  A
C1261      C1347   1.495       .  S
C1262      H1267   1.083       .  S
C1262      C1263   1.403       .  A
C1263      C1264   1.408       .  A
C1263      C1351   1.492       .  S
C1264      H1268   1.083       .  S
C1264      C1265   1.406       .  A
C1265      C1266   1.412       .  A
C1265      C1355   1.496       .  S
C1266      H1269   1.082       .  S
C1270      C1346   1.437       .  S
C1270      C1271   1.388       .  A
C1270      C1275   1.408       .  A
C1271      H1276   1.088       .  S
C1271      C1272   1.385   1_455  A
C1272      C1389   1.430       .  S
C1272      C1273   1.398       .  A
C1273      H1277   1.085       .  S
C1273      C1274   1.410       .  A
C1274      C1275   1.420   1_655  A
C1274      C1356   1.491       .  S
C1275      H1278   1.084       .  S
C1279      C1706   1.438       .  S
C1279      C1280   1.393       .  A
C1279      C1284   1.407       .  A
C1280      H1285   1.087       .  S
C1280      C1281   1.389   1_545  A
C1281      C1556   1.436       .  S
C1281      C1282   1.398       .  A
C1282      H1286   1.085       .  S
C1282      C1283   1.410       .  A
C1283      C1284   1.417   1_565  A
C1283      C1348   1.492       .  S
C1284      H1287   1.082       .  S
C1288      C1720   1.434       .  S
C1288      C1289   1.389       .  A
C1288      C1293   1.404       .  A
C1289      H1294   1.088       .  S
C1289      C1290   1.387   1_554  A
C1290      C1512   1.433       .  S
C1290      C1291   1.400       .  A
C1291      H1295   1.085       .  S
C1291      C1292   1.411       .  A
C1292      C1293   1.418   1_556  A
C1292      C1352   1.492       .  S
C1293      H1296   1.081       .  S
O1297     Mg1299   2.119       .  S
O1297     Mg1305   2.131       .  S
O1297      C1332   1.238       .  S
C1298      O1311   1.239       .  S
C1298      O1335   1.273       .  A
C1298      H1337   1.082       .  S
Mg1299     O1328   2.132       .  S
Mg1299     O1343   2.345       .  S
Mg1299     O1339   2.258       .  S
Mg1299     O1310   2.304       .  S
O1300     Mg1342   2.134       .  S
O1300     Mg1325   2.128       .  S
O1300      C1321   1.238       .  S
O1301      C1332   1.271       .  A
O1301     Mg1325   2.293       .  S
C1302      O1304   1.271       .  A
C1302      O1316   1.274       .  A
C1302      C1403   1.438       .  S
O1303      C1331   1.272       .  A
O1303     Mg1305   2.298       .  S
O1304     Mg1336   2.257       .  S
Mg1305     O1311   2.134       .  S
Mg1305     O1319   2.263       .  S
Mg1305     O1307   2.324       .  S
C1306      O1344   1.270       .  A
C1306      O1312   1.274       .  A
C1306      C1532   1.435       .  S
O1307      C1314   1.275       .  A
H1308      C1321   1.082       .  S
C1309      O1323   1.240       .  S
C1309      O1324   1.273       .  A
C1309      H1334   1.082       .  S
O1310      C1333   1.273       .  A
O1311     Mg1325   2.138       .  S
O1312     Mg1342   2.319       .  S
C1313      O1326   1.269       .  A
C1313      O1318   1.272       .  A
C1313      C1633   1.428       .  S
C1314      O1341   1.269       .  A
C1314      C1374   1.433       .  S
Mg1315     O1322   2.124       .  S
Mg1315     O1323   2.135       .  S
Mg1315     O1316   2.318       .  S
Mg1315     O1317   2.301       .  S
Mg1315     O1344   2.250       .  S
O1317      C1321   1.271       .  A
O1318     Mg1325   2.305       .  S
O1319      C1338   1.273       .  A
O1320      C1340   1.273       .  A
O1320     Mg1336   2.311       .  S
O1322     Mg1336   2.128       .  S
O1322      C1333   1.240       .  S
O1323     Mg1342   2.122       .  S
O1324     Mg1336   2.301       .  S
Mg1325     O1341   2.241       .  S
O1326     Mg1342   2.239       .  S
H1327      C1332   1.082       .  S
O1328     Mg1336   2.133       .  S
O1328      C1331   1.239       .  S
H1329      C1331   1.082       .  S
H1330      C1333   1.082       .  S
O1335     Mg1342   2.302       .  S
C1338      O1343   1.279       .  A
C1338      C1410   1.444       .  S
O1339      C1340   1.272       .  A
C1340      C1345   1.436       .  S
C1345      C1346   1.206       .  T
C1347      C1348   1.350       .  D
C1347      H1349   1.085       .  S
C1348      H1350   1.085       .  S
C1351      C1352   1.348       .  D
C1351      H1353   1.084       .  S
C1352      H1354   1.086       .  S
C1355      C1356   1.348       .  D
C1355      H1357   1.086       .  S
C1356      H1358   1.085       .  S
C1359      C1360   1.351       .  D
C1359      H1361   1.085       .  S
C1360      H1362   1.085       .  S
C1363      C1364   1.349       .  D
C1363      H1365   1.085       .  S
C1364      H1366   1.085       .  S
C1367      C1368   1.351       .  D
C1367      H1369   1.085       .  S
C1368      H1370   1.085       .  S
C1371      C1372   1.205       .  T
C1373      C1374   1.205       .  T
C1375      C1376   1.206       .  T
C1377      C1378   1.346       .  D
C1377      H1379   1.086       .  S
C1378      H1380   1.086       .  S
C1381      C1382   1.347       .  D
C1381      H1383   1.085       .  S
C1382      H1384   1.087       .  S
C1385      C1386   1.350       .  D
C1385      H1387   1.084       .  S
C1386      H1388   1.085       .  S
C1389      C1390   1.201       .  T
C1391      C1392   1.202       .  T
C1393      C1394   1.207       .  T
C1395      C1396   1.352       .  D
C1395      H1397   1.085       .  S
C1396      H1398   1.086       .  S
C1399      C1400   1.349       .  D
C1399      H1401   1.085       .  S
C1400      H1402   1.085       .  S
C1403      C1404   1.208       .  T
C1405      C1406   1.352       .  D
C1405      H1407   1.085       .  S
C1406      H1408   1.085       .  S
C1409      C1410   1.211       .  T
C1411      C1412   1.207       .  T
C1413      C1414   1.343       .  D
C1413      H1415   1.086       .  S
C1414      H1416   1.087       .  S
C1417      C1418   1.351       .  D
C1417      H1419   1.084       .  S
C1418      H1420   1.085       .  S
C1421      C1422   1.344       .  D
C1421      H1423   1.088       .  S
C1422      H1424   1.084       .  S
C1425      C1426   1.206       .  T
C1427      C1428   1.349       .  D
C1427      H1429   1.085       .  S
C1428      H1430   1.085       .  S
C1431      C1432   1.352       .  D
C1431      H1433   1.085       .  S
C1432      H1434   1.085       .  S
C1435      C1436   1.352       .  D
C1435      H1437   1.085       .  S
C1436      H1438   1.085       .  S
C1439      C1440   1.344       .  D
C1439      H1441   1.086       .  S
C1440      H1442   1.086       .  S
C1443      C1444   1.344       .  D
C1443      H1445   1.087       .  S
C1444      H1446   1.083       .  S
C1447      C1448   1.352       .  D
C1447      H1449   1.084       .  S
C1448      H1450   1.086       .  S
C1451      C1452   1.206       .  T
C1453      C1454   1.208       .  T
C1455      C1456   1.349       .  D
C1455      H1457   1.085       .  S
C1456      H1458   1.085       .  S
C1459      C1460   1.350       .  D
C1459      H1461   1.085       .  S
C1460      H1462   1.085       .  S
C1463      C1464   1.206       .  T
C1465      C1466   1.350       .  D
C1465      H1467   1.086       .  S
C1466      H1468   1.085       .  S
C1469      C1470   1.213       .  T
C1471      C1472   1.208       .  T
C1473      C1474   1.207       .  T
C1475      C1476   1.205       .  T
C1477      C1478   1.350       .  D
C1477      H1479   1.085       .  S
C1478      H1480   1.085       .  S
C1481      C1482   1.204       .  T
C1483      C1484   1.348       .  D
C1483      H1485   1.086       .  S
C1484      H1486   1.085       .  S
C1487      C1488   1.201       .  T
C1489      C1490   1.207       .  T
C1491      C1492   1.348       .  D
C1491      H1493   1.086       .  S
C1492      H1494   1.085       .  S
C1495      C1496   1.212       .  T
C1497      C1498   1.205       .  T
C1499      C1500   1.344       .  D
C1499      H1501   1.085       .  S
C1500      H1502   1.089       .  S
C1503      C1504   1.349       .  D
C1503      H1505   1.084       .  S
C1504      H1506   1.086       .  S
C1507      C1508   1.343       .  D
C1507      H1509   1.086       .  S
C1508      H1510   1.087       .  S
C1511      C1512   1.202       .  T
C1513      C1514   1.205       .  T
C1515      C1516   1.204       .  T
C1517      C1518   1.201       .  T
C1519      C1520   1.210       .  T
C1521      C1522   1.202       .  T
C1523      C1524   1.345       .  D
C1523      H1525   1.083       .  S
C1524      H1526   1.088       .  S
C1527      C1528   1.344       .  D
C1527      H1529   1.086       .  S
C1528      H1530   1.087       .  S
C1531      C1532   1.206       .  T
C1533      C1534   1.352       .  D
C1533      H1535   1.083       .  S
C1534      H1536   1.085       .  S
C1537      C1538   1.201       .  T
C1539      C1540   1.204       .  T
C1541      C1542   1.344       .  D
C1541      H1543   1.084       .  S
C1542      H1544   1.087       .  S
C1545      C1546   1.348       .  D
C1545      H1547   1.086       .  S
C1546      H1548   1.085       .  S
C1549      C1550   1.212       .  T
C1551      C1552   1.342       .  D
C1551      H1553   1.086       .  S
C1552      H1554   1.087       .  S
C1555      C1556   1.203       .  T
C1557      C1558   1.202       .  T
C1559      C1560   1.201       .  T
C1561      C1562   1.210       .  T
C1563      C1564   1.202       .  T
C1565      C1566   1.202       .  T
C1567      C1568   1.345       .  D
C1567      H1569   1.086       .  S
C1568      H1570   1.085       .  S
C1571      C1572   1.345       .  D
C1571      H1573   1.086       .  S
C1572      H1574   1.086       .  S
C1575      C1576   1.208       .  T
C1577      C1578   1.209       .  T
C1579      C1580   1.353       .  D
C1579      H1581   1.084       .  S
C1580      H1582   1.085       .  S
C1583      C1584   1.207       .  T
C1585      C1586   1.203       .  T
C1587      C1588   1.351       .  D
C1587      H1589   1.085       .  S
C1588      H1590   1.086       .  S
C1591      C1592   1.350       .  D
C1591      H1593   1.085       .  S
C1592      H1594   1.085       .  S
C1595      C1596   1.203       .  T
C1597      C1598   1.350       .  D
C1597      H1599   1.085       .  S
C1598      H1600   1.084       .  S
C1601      C1602   1.205       .  T
C1603      C1604   1.210       .  T
C1605      C1606   1.207       .  T
C1607      C1608   1.206       .  T
C1609      C1610   1.213       .  T
C1611      C1612   1.204       .  T
C1613      C1614   1.211       .  T
C1615      C1616   1.210       .  T
C1617      C1618   1.207       .  T
C1619      C1620   1.205       .  T
C1621      C1622   1.212       .  T
C1623      C1624   1.207       .  T
C1625      C1626   1.211       .  T
C1627      C1628   1.205       .  T
C1629      C1630   1.205       .  T
C1631      C1632   1.204       .  T
C1633      C1634   1.202       .  T
C1635      C1636   1.206       .  T
C1637      C1638   1.349       .  D
C1637      H1639   1.085       .  S
C1638      H1640   1.085       .  S
C1641      C1642   1.348       .  D
C1641      H1643   1.085       .  S
C1642      H1644   1.082       .  S
C1645      C1646   1.349       .  D
C1645      H1647   1.085       .  S
C1646      H1648   1.084       .  S
C1649      C1650   1.202       .  T
C1651      C1652   1.202       .  T
C1653      C1654   1.202       .  T
C1655      C1656   1.205       .  T
C1657      C1658   1.199       .  T
C1659      C1660   1.205       .  T
C1661      C1662   1.204       .  T
C1663      C1664   1.206       .  T
C1665      C1666   1.207       .  T
C1667      C1668   1.203       .  T
C1669      C1670   1.203       .  T
C1671      C1672   1.207       .  T
C1673      C1674   1.349       .  D
C1673      H1675   1.085       .  S
C1674      H1676   1.082       .  S
C1677      C1678   1.206       .  T
C1679      C1680   1.200       .  T
C1681      C1682   1.347       .  D
C1681      H1683   1.084       .  S
C1682      H1684   1.085       .  S
C1685      C1686   1.206       .  T
C1687      C1688   1.200       .  T
C1689      C1690   1.348       .  D
C1689      H1691   1.085       .  S
C1690      H1692   1.083       .  S
C1693      C1694   1.201       .  T
C1695      C1696   1.198       .  T
C1697      C1698   1.208       .  T
C1699      C1700   1.197       .  T
C1701      C1702   1.201       .  T
C1703      C1704   1.206       .  T
C1705      C1706   1.206       .  T
C1707      C1708   1.209       .  T
C1709      C1710   1.206       .  T
C1711      C1712   1.204       .  T
C1713      C1714   1.204       .  T
C1715      C1716   1.212       .  T
C1717      C1718   1.204       .  T
C1719      C1720   1.203       .  T
C1721      C1722   1.200       .  T
C1723      C1724   1.200       .  T
C1725      C1726   1.202       .  T
C1727      C1728   1.206       .  T
