geometry optimzed in LAMMPS
_audit_creation_date              2020-11-30 
_audit_creation_method            'lammps2cif' 
_symmetry_space_group_name_H-M    'P1' 
_symmetry_Int_Tables_number       1 
_symmetry_cell_setting            triclinic 
loop_ 
_symmetry_equiv_pos_as_xyz 
  x,y,z 
_cell_length_a                    49.931409927416084 
_cell_length_b                    51.871059998729976 
_cell_length_c                    51.479507678547975 
_cell_angle_alpha                 89.90947592698396 
_cell_angle_beta                  90.25237008373057 
_cell_angle_gamma                 89.64050499014179 
loop_ 
_atom_site_label 
_atom_site_type_symbol 
_atom_site_fract_x 
_atom_site_fract_y 
_atom_site_fract_z 
_atom_site_charge 
O1          O  0.47963171  0.52553578  0.55760417    -0.81500
O2          O  0.52045733  0.44827655  0.47873789    -0.66190
O3          O  0.51473835  0.50757190  0.52117416    -1.12790
C4          C  0.45028147  0.53318890  0.45744405     1.05390
O5          O  0.52217651  0.47394175  0.44421189    -0.79400
O6          O  0.51146463  0.52381723  0.44215238    -0.66980
Ni7        Ni  0.51206590  0.50606139  0.55742995     1.34870
C8          C  0.52083520  0.54032557  0.45784500     0.84120
O9          O  0.54452799  0.46176767  0.52314856    -0.79940
O10         O  0.54427279  0.48617577  0.55925315    -0.90210
C11         C  0.52784717  0.45297924  0.45566546     0.83700
O12         O  0.49113250  0.47562543  0.56034077    -0.68410
O13         O  0.45797109  0.51347376  0.44482523    -0.87700
C14         C  0.48330355  0.45851840  0.54453340     0.84530
C15         C  0.55270831  0.46701492  0.54611643     1.06100
H16         H  0.47240208  0.48348388  0.48585960     0.37900
O17         O  0.48871421  0.49264072  0.48210816    -1.10360
O18         O  0.51404521  0.54171786  0.48168986    -0.67010
Ni19       Ni  0.48684542  0.52365546  0.50139927     1.26350
O20         O  0.49060383  0.45759457  0.52089010    -0.67240
O21         O  0.45950576  0.53927262  0.47981959    -0.79530
C22         C  0.47564243  0.54751495  0.54739642     0.83910
O23         O  0.48397313  0.55235716  0.52457140    -0.66710
Ni24       Ni  0.49008915  0.49367529  0.44571388     1.27450
Ni25       Ni  0.51703588  0.47687288  0.50165301     1.26060
H26         H  0.53114385  0.51680859  0.51797301     0.38450
O27         O  0.47385214  0.21699309  0.19168119    -0.81500
O28         O  0.51967031  0.30900566  0.25582496    -0.66190
O29         O  0.51185208  0.24485442  0.22017388    -1.12790
C30         C  0.46400123  0.22041330  0.29613802     1.05390
O31         O  0.52878033  0.28835506  0.29242379    -0.79400
O32         O  0.52604518  0.23815240  0.29940386    -0.66980
Ni33       Ni  0.50037323  0.24291843  0.18501023     1.34870
C34         C  0.53363339  0.22056877  0.28401092     0.84120
O35         O  0.53767116  0.29096744  0.21059912    -0.79940
O36         O  0.52565486  0.26880129  0.17481665    -0.90210
C37         C  0.52986314  0.30848507  0.27847177     0.83700
O38         O  0.47286527  0.26828001  0.18688910    -0.68410
O39         O  0.47233237  0.24096338  0.30692096    -0.87700
C40         C  0.47015374  0.28861126  0.20030067     0.84530
C41         C  0.53826694  0.28690631  0.18619399     1.06100
H42         H  0.47410761  0.27006866  0.25991751     0.37900
O43         O  0.49166899  0.26237495  0.26192521    -1.10360
O44         O  0.52218738  0.21578364  0.26243198    -0.67010
Ni45       Ni  0.49020684  0.22926604  0.24609041     1.26350
O46         O  0.48486439  0.29391463  0.21980471    -0.67240
O47         O  0.46923006  0.21411379  0.27282076    -0.79530
C48         C  0.47365562  0.19780588  0.20707049     0.83910
O49         O  0.48743377  0.19750057  0.22777407    -0.66710
Ni50       Ni  0.50000539  0.26483334  0.29788402     1.27450
Ni51       Ni  0.51504506  0.27743134  0.23680721     1.26060
H52         H  0.52939494  0.23688779  0.22061344     0.38450
C53         C  0.79915315  0.78392675  0.79770749     0.02520
C54         C  0.81221489  0.79600751  0.77670562    -0.13630
C55         C  0.80155871  0.81855121  0.76515154     0.00020
C56         C  0.77871099  0.83001616  0.77613899    -0.12160
C57         C  0.76584814  0.81904373  0.79767158     0.02510
C58         C  0.77556070  0.79535303  0.80750696    -0.11580
H59         H  0.83092635  0.78813263  0.76960457     0.08110
H60         H  0.77113506  0.84793421  0.76805239     0.05640
H61         H  0.76504702  0.78599802  0.82323188     0.05480
C62         C  0.76610406  0.97105254  0.94953212     0.02520
C63         C  0.77648992  0.95807996  0.97142974    -0.13630
C64         C  0.80080389  0.96558409  0.98282745     0.00020
C65         C  0.81416658  0.98715269  0.97291775    -0.12160
C66         C  0.80467097  0.99985520  0.95061987     0.02510
C67         C  0.78043823  0.99191779  0.93918879    -0.11580
H68         H  0.76609964  0.94143407  0.97904281     0.08110
H69         H  0.83270912  0.99335888  0.98188513     0.05640
H70         H  0.77330125  0.00138197  0.92169229     0.05480
C71         C  0.99220186  0.80531163  0.95471738     0.02520
C72         C  0.97986762  0.81712249  0.97619032    -0.13630
C73         C  0.95598394  0.80695012  0.98645676     0.00020
C74         C  0.94527003  0.78447682  0.97549987    -0.12160
C75         C  0.95829045  0.77186441  0.95509957     0.02510
C76         C  0.98201815  0.78208635  0.94521753    -0.11580
H77         H  0.98817915  0.83468558  0.98410390     0.08110
H78         H  0.92615066  0.77732904  0.98220136     0.05640
H79         H  0.99177162  0.77271460  0.92895855     0.05480
C80         C  0.95885035  0.96143854  0.76911685     0.02520
C81         C  0.95099809  0.98461649  0.78114793    -0.13630
C82         C  0.96429230  0.99311147  0.80367488     0.00020
C83         C  0.98548665  0.97860726  0.81397466    -0.12160
C84         C  0.99382897  0.95589660  0.80191937     0.02510
C85         C  0.98080989  0.94748315  0.77930975    -0.11580
H86         H  0.93398781  0.99542585  0.77367401     0.08110
H87         H  0.99538930  0.98490678  0.83163444     0.05640
H88         H  0.98717773  0.92967471  0.77017729     0.05480
O89         O  0.08851098  0.88171394  0.84114464    -0.75040
O90         O  0.14140978  0.83953783  0.87370531    -0.75070
O91         O  0.08723250  0.84283156  0.87627477    -0.75120
O92         O  0.14264353  0.87894869  0.83963455    -0.75170
O93         O  0.14524090  0.90695448  0.87228842    -0.75100
O94         O  0.09100670  0.87077069  0.90896880    -0.75080
O95         O  0.14489174  0.86734661  0.90640752    -0.75060
O96         O  0.09082222  0.90975678  0.87394340    -0.75120
Ni97       Ni  0.11483007  0.85975811  0.85652586     1.25410
Ni98       Ni  0.11809633  0.88976032  0.89152463     1.25360
C99         C  0.08079317  0.90246215  0.85218472     0.87140
C100        C  0.15204170  0.84631815  0.89525389     0.87080
C101        C  0.08023680  0.85086964  0.89886101     0.87100
C102        C  0.15336955  0.89875839  0.85025386     0.87270
O103        O  0.83476621  0.88436039  0.07405599    -0.75040
O104        O  0.86696546  0.84345496  0.12795437    -0.75070
O105        O  0.83018894  0.88229952  0.12625205    -0.75120
O106        O  0.87189756  0.84577265  0.07544923    -0.75170
O107        O  0.90434796  0.87488468  0.07968603    -0.75100
O108        O  0.86297498  0.91099296  0.13014826    -0.75080
O109        O  0.89957721  0.87247105  0.13199691    -0.75060
O110        O  0.86762890  0.91310360  0.07792864    -0.75120
Ni111      Ni  0.84979490  0.86287101  0.10081425     1.25410
Ni112      Ni  0.88478398  0.89384732  0.10514207     1.25360
C113        C  0.84586718  0.90549262  0.06723617     0.87140
C114        C  0.88853550  0.85131638  0.13877984     0.87080
C115        C  0.83950310  0.90318441  0.13595320     0.87100
C116        C  0.89496636  0.85452056  0.06914044     0.87270
O117        O  0.87620744  0.85967127  0.67082605    -0.75040
O118        O  0.91791203  0.89438094  0.61926977    -0.75070
O119        O  0.91502961  0.89539998  0.67200118    -0.75120
O120        O  0.87868830  0.85852610  0.61828771    -0.75170
O121        O  0.84759482  0.88919760  0.61564772    -0.75100
O122        O  0.88490541  0.92722704  0.66897756    -0.75080
O123        O  0.88689844  0.92528133  0.61601477    -0.75060
O124        O  0.84571078  0.89120660  0.66905580    -0.75120
Ni125      Ni  0.89801162  0.87593806  0.64510491     1.25410
Ni126      Ni  0.86510693  0.90933829  0.64230487     1.25360
C127        C  0.85455485  0.87009176  0.67906407     0.87140
C128        C  0.90933974  0.91541361  0.60897269     0.87080
C129        C  0.90578671  0.91717028  0.67961998     0.87100
C130        C  0.85741812  0.86767126  0.60770986     0.87270
O131        O  0.88084770  0.68356063  0.90802937    -0.75040
O132        O  0.84193597  0.63457784  0.86784724    -0.75070
O133        O  0.88020583  0.63119458  0.90456955    -0.75120
O134        O  0.84212444  0.68705304  0.87120311    -0.75170
O135        O  0.87301641  0.68811812  0.84012282    -0.75100
O136        O  0.91151742  0.63269210  0.87383793    -0.75080
O137        O  0.87308838  0.63588764  0.83706187    -0.75060
O138        O  0.91176819  0.68513809  0.87690704    -0.75120
Ni139      Ni  0.86014687  0.65906452  0.88900674     1.25410
Ni140      Ni  0.89347361  0.66054589  0.85591932     1.25360
C141        C  0.90247158  0.69282469  0.89870273     0.87140
C142        C  0.85148285  0.62655795  0.84622429     0.87080
C143        C  0.90175564  0.62237222  0.89434977     0.87100
C144        C  0.85143124  0.69701391  0.85029236     0.87270
O145        O  0.66625736  0.86821367  0.86407447    -0.75040
O146        O  0.61249694  0.90794586  0.89864384    -0.75070
O147        O  0.61196347  0.87174229  0.86138588    -0.75120
O148        O  0.66688251  0.90500607  0.90114887    -0.75170
O149        O  0.66923726  0.93612063  0.87132821    -0.75100
O150        O  0.61576058  0.90169063  0.83046962    -0.75080
O151        O  0.61447024  0.93830553  0.86811031    -0.75060
O152        O  0.67008684  0.89882596  0.83392371    -0.75120
Ni153      Ni  0.63930166  0.88721364  0.88237952     1.25410
Ni154      Ni  0.64252719  0.91989205  0.84988149     1.25360
C155        C  0.67711684  0.87680683  0.84334066     0.87140
C156        C  0.60406006  0.92927691  0.88899020     0.87080
C157        C  0.60482945  0.88128742  0.83942868     0.87100
C158        C  0.67739566  0.92584064  0.89261606     0.87270
O159        O  0.88976300  0.08877463  0.91606147    -0.75040
O160        O  0.93207134  0.14082689  0.88300093    -0.75070
O161        O  0.89059378  0.14091040  0.91628175    -0.75120
O162        O  0.93120972  0.08811171  0.88223036    -0.75170
O163        O  0.90286493  0.09004978  0.84863009    -0.75100
O164        O  0.86150242  0.14101168  0.88351279    -0.75080
O165        O  0.90278503  0.14236339  0.85039637    -0.75060
O166        O  0.86169093  0.08906678  0.88223248    -0.75120
Ni167      Ni  0.91203530  0.11459388  0.90056563     1.25410
Ni168      Ni  0.88127921  0.11564792  0.86499032     1.25360
C169        C  0.86867469  0.08047778  0.90461402     0.87140
C170        C  0.92391463  0.15088572  0.86163717     0.87080
C171        C  0.86917858  0.14959289  0.90557295     0.87100
C172        C  0.92321142  0.08005046  0.86001110     0.87270
O173        O  0.22925540  0.44327560  0.27715517    -0.81500
O174        O  0.26165430  0.52753089  0.20047078    -0.66190
O175        O  0.26045787  0.48402480  0.25983024    -1.12790
C176        C  0.19534361  0.54242093  0.29235299     1.05390
O177        O  0.25974891  0.56324386  0.22441213    -0.79400
O178        O  0.25816280  0.55998287  0.27616935    -0.66980
Ni179      Ni  0.26138303  0.44767587  0.25750677     1.34870
C180        C  0.26466398  0.54497849  0.29464536     0.84120
O181        O  0.28860315  0.48457334  0.21267357    -0.79940
O182        O  0.29335873  0.44923001  0.23741546    -0.90210
C183        C  0.26765299  0.55099793  0.20449585     0.83700
O184        O  0.24095811  0.44368367  0.22644333    -0.68410
O185        O  0.20440177  0.55822672  0.27557952    -0.87700
C186        C  0.23066546  0.45896501  0.20986376     0.84530
C187        C  0.29938791  0.46266744  0.21752794     1.06100
H188        H  0.21515447  0.51837434  0.23682240     0.37900
O189        O  0.23148783  0.52206850  0.24619853    -1.10360
O190        O  0.25614287  0.52181612  0.29686172    -0.67010
Ni191      Ni  0.23116016  0.50087584  0.27655123     1.26350
O192        O  0.23433072  0.48335544  0.21024766    -0.67240
O193        O  0.20198547  0.51867911  0.29295140    -0.79530
C194        C  0.22312425  0.45334921  0.29879234     0.83910
O195        O  0.22996734  0.47631903  0.30433895    -0.66710
Ni196      Ni  0.23189122  0.55856413  0.24957513     1.27450
Ni197      Ni  0.26038966  0.50414836  0.22914596     1.26060
H198        H  0.27659351  0.48851673  0.26916567     0.38450
O199        O  0.18582205  0.26989231  0.53390039    -0.81500
O200        O  0.26778457  0.22965387  0.44582832    -0.66190
O201        O  0.22606832  0.24275051  0.50719591    -1.12790
C202        C  0.29706229  0.29444671  0.53429231     1.05390
O203        O  0.30650868  0.22849991  0.46716238    -0.79400
O204        O  0.29650170  0.22665443  0.51692920    -0.66980
Ni205      Ni  0.18901717  0.25068190  0.50242722     1.34870
C206        C  0.28441691  0.22932004  0.53823955     0.84120
O207        O  0.22269554  0.21050666  0.46364663    -0.79940
O208        O  0.18497986  0.23227774  0.46986313    -0.90210
C209        C  0.29145833  0.22096282  0.44887993     0.83700
O210        O  0.20199493  0.28064612  0.48659250    -0.68410
O211        O  0.31086944  0.27743036  0.52256685    -0.87700
C212        C  0.20965944  0.28087658  0.46333085     0.84530
C213        C  0.19815321  0.21439821  0.45887198     1.06100
H214        H  0.26868651  0.27801062  0.47725029     0.37900
O215        O  0.26914319  0.26320550  0.48865919    -1.10360
O216        O  0.26695340  0.24686180  0.54221203    -0.67010
Ni217      Ni  0.24847941  0.27077135  0.51906987     1.26350
O218        O  0.22596930  0.26346445  0.45502732    -0.67240
O219        O  0.27210319  0.29757422  0.53025180    -0.79530
C220        C  0.20104547  0.28173411  0.54954345     0.83910
O221        O  0.22636462  0.28026942  0.54803351    -0.66710
Ni222      Ni  0.30585218  0.25368168  0.49416436     1.27450
Ni223      Ni  0.24594186  0.23700708  0.47561692     1.26060
H224        H  0.22778722  0.22788427  0.51840456     0.38450
O225        O  0.49066606  0.72839048  0.68770309    -0.81500
O226        O  0.52460612  0.81445888  0.76286945    -0.66190
O227        O  0.52277257  0.75112344  0.72568425    -1.12790
C228        C  0.46392389  0.72436052  0.79148825     1.05390
O229        O  0.52900278  0.79424928  0.80074295    -0.79400
O230        O  0.53080938  0.74263761  0.80018020    -0.66980
Ni231      Ni  0.52155704  0.75017699  0.68877648     1.34870
C232        C  0.53334750  0.72209566  0.78707857     0.84120
O233        O  0.54879008  0.79876898  0.72046446    -0.79940
O234        O  0.55171822  0.77286579  0.68590367    -0.90210
C235        C  0.53304398  0.81360276  0.78616624     0.83700
O236        O  0.49840936  0.77869172  0.68349350    -0.68410
O237        O  0.47654642  0.74072449  0.80519164    -0.87700
C238        C  0.48910924  0.79645630  0.69773595     0.84530
C239        C  0.55708510  0.79383502  0.69773399     1.06100
H240        H  0.47975846  0.77722436  0.76179261     0.37900
O241        O  0.49652807  0.76815877  0.76436970    -1.10360
O242        O  0.51995148  0.71733162  0.76655682    -0.67010
Ni243      Ni  0.49434750  0.73646306  0.74565813     1.26350
O244        O  0.49494204  0.79902239  0.72178254    -0.67240
O245        O  0.46643280  0.72280303  0.76688431    -0.79530
C246        C  0.48450030  0.70855330  0.70073138     0.83910
O247        O  0.49149364  0.70631915  0.72438349    -0.66710
Ni248      Ni  0.50257257  0.76741105  0.80082399     1.27450
Ni249      Ni  0.52309922  0.78350635  0.74291485     1.26060
H250        H  0.53925518  0.74244243  0.73044088     0.38450
O251        O  0.18865649  0.77668303  0.01945263    -0.81500
O252        O  0.27573068  0.73336025  0.94739621    -0.66190
O253        O  0.22874030  0.74092659  0.00524975    -1.12790
C254        C  0.29355862  0.79816487  0.03705043     1.05390
O255        O  0.31140069  0.73032388  0.97318141    -0.79400
O256        O  0.30342202  0.73157845  0.02404331    -0.66980
Ni257      Ni  0.19112649  0.74450831  0.00109921     1.34870
C258        C  0.28687287  0.73002228  0.04250567     0.84120
O259        O  0.22790039  0.71279956  0.95831128    -0.79940
O260        O  0.19025427  0.71297678  0.98216177    -0.90210
C261        C  0.29968971  0.72585076  0.95169365     0.83700
O262        O  0.19112774  0.76372239  0.96958355    -0.68410
O263        O  0.31019451  0.78393398  0.02481636    -0.87700
C264        C  0.20938987  0.77201767  0.95478456     0.84530
C265        C  0.20403675  0.70522391  0.96289084     1.06100
H266        H  0.27108950  0.77895609  0.98204836     0.37900
O267        O  0.27179773  0.76333694  0.99228234    -1.10360
O268        O  0.26584241  0.74401969  0.04429525    -0.67010
Ni269      Ni  0.24819085  0.76829576  0.02083886     1.26350
O270        O  0.23372028  0.76478449  0.95605717    -0.67240
O271        O  0.26833129  0.79570314  0.03524806    -0.79530
C272        C  0.19986641  0.78360825  0.04045176     0.83910
O273        O  0.22225563  0.77414649  0.04738095    -0.66710
Ni274      Ni  0.30868845  0.75731105  0.99863034     1.27450
Ni275      Ni  0.25085837  0.73746425  0.97538061     1.26060
H276        H  0.23137218  0.72556310  0.01556464     0.38450
O277        O  0.06558855  0.49252478  0.02480649    -0.81500
O278        O  0.98057122  0.53203544  0.94451158    -0.66190
O279        O  0.02463387  0.52354817  0.00450182    -1.12790
C280        C  0.96102086  0.46051940  0.02897380     1.05390
O281        O  0.94224806  0.52817205  0.96560357    -0.79400
O282        O  0.94441820  0.52156584  0.01636723    -0.66980
Ni283      Ni  0.06263095  0.52226798  0.00269606     1.34870
C284        C  0.95996170  0.52972057  0.03408168     0.84120
O285        O  0.02325065  0.55537127  0.96155483    -0.79940
O286        O  0.06384124  0.55159767  0.97989248    -0.90210
C287        C  0.95624308  0.53839886  0.94785329     0.83700
O288        O  0.06492398  0.50011284  0.97353468    -0.68410
O289        O  0.94571556  0.46927303  0.01113866    -0.87700
C290        C  0.04955941  0.49530929  0.95448653     0.84530
C291        C  0.04751968  0.56196190  0.96384066     1.06100
H292        H  0.98950809  0.48302402  0.97686460     0.37900
O293        O  0.98483052  0.49795336  0.98712722    -1.10360
O294        O  0.98357885  0.52064092  0.03776454    -0.67010
Ni295      Ni  0.00516869  0.49545649  0.01876884     1.26350
O296        O  0.02560126  0.50400528  0.95251691    -0.67240
O297        O  0.98481933  0.46805862  0.03284228    -0.79530
C298        C  0.05257518  0.48409185  0.04421171     0.83910
O299        O  0.02858251  0.49149688  0.04831698    -0.66710
Ni300      Ni  0.94655397  0.49848717  0.98811363     1.27450
Ni301      Ni  0.00373973  0.52696888  0.97379394     1.26060
H302        H  0.02088161  0.53870272  0.01477985     0.38450
O303        O  0.23742402  0.94683429  0.77057793    -0.81500
O304        O  0.27579993  0.03286241  0.69453945    -0.66190
O305        O  0.26912541  0.98624265  0.75153877    -1.12790
C306        C  0.20582620  0.05007157  0.78009786     1.04110
O307        O  0.27806162  0.06468311  0.72308102    -0.79400
O308        O  0.26432538  0.06393946  0.77284438    -0.66980
Ni309      Ni  0.26795633  0.95000998  0.74814161     1.34870
C310        C  0.27349712  0.04756283  0.78894616     0.84120
O311        O  0.29992692  0.98853009  0.70593620    -0.79940
O312        O  0.29820775  0.94958176  0.72490162    -0.90210
C313        C  0.28400762  0.05516893  0.70117775     0.83700
O314        O  0.24453075  0.94918205  0.71923853    -0.68410
O315        O  0.21175709  0.06213651  0.75939912    -0.87700
C316        C  0.23801110  0.96495694  0.70147002     0.84530
C317        C  0.30746445  0.96517563  0.70797804     1.06100
H318        H  0.22695651  0.02270830  0.72821968     0.37900
O319        O  0.24309426  0.02600531  0.73806312    -1.10360
O320        O  0.26804298  0.02359785  0.78810877    -0.67010
Ni321      Ni  0.24098451  0.00536228  0.76843414     1.26350
O322        O  0.24596840  0.98843640  0.70062378    -0.67240
O323        O  0.21439872  0.02722769  0.78524182    -0.79530
C324        C  0.23068731  0.95798231  0.79161924     0.83910
O325        O  0.23775238  0.98108919  0.79646220    -0.66710
Ni326      Ni  0.24478034  0.06214759  0.74101436     1.27450
Ni327      Ni  0.27169469  0.00776276  0.72173892     1.26060
H328        H  0.28541513  0.98912052  0.76126759     0.38450
O329        O  0.69536980  0.78830167  0.51456562    -0.81500
O330        O  0.77688937  0.73200555  0.44760158    -0.66190
O331        O  0.73315994  0.74969606  0.50493987    -1.12790
C332        C  0.80245819  0.80598531  0.52905616     1.05390
O333        O  0.81349049  0.73057608  0.47245772    -0.79400
O334        O  0.80650343  0.73818229  0.52316043    -0.66980
Ni335      Ni  0.69560599  0.75353108  0.50168539     1.34870
C336        C  0.79097237  0.74124833  0.54230660     0.84120
O337        O  0.72897172  0.71492884  0.46288134    -0.79940
O338        O  0.69294374  0.71922851  0.48831804    -0.90210
C339        C  0.80018899  0.72341092  0.45265367     0.83700
O340        O  0.69445817  0.76684425  0.46719091    -0.68410
O341        O  0.81708895  0.78927413  0.51760962    -0.87700
C342        C  0.71216391  0.77210452  0.45044305     0.84530
C343        C  0.70519969  0.70850910  0.46953970     1.06100
H344        H  0.77656036  0.78199348  0.47538989     0.37900
O345        O  0.77666522  0.76801954  0.48780826    -1.10360
O346        O  0.77119085  0.75677824  0.54234604    -0.67010
Ni347      Ni  0.75447690  0.77812942  0.51605726     1.26350
O348        O  0.73667983  0.76571583  0.45266046    -0.67240
O349        O  0.77700074  0.80605337  0.52704131    -0.79530
C350        C  0.70761771  0.79757060  0.53408944     0.83910
O351        O  0.72974425  0.78832451  0.54183679    -0.66710
Ni352      Ni  0.81314822  0.76027997  0.49460630     1.27450
Ni353      Ni  0.75365879  0.74101230  0.47537929     1.26060
H354        H  0.73570732  0.73569958  0.51727220     0.38450
O355        O  0.01820391  0.81136236  0.28175448    -0.81500
O356        O  0.98339658  0.72825079  0.20121273    -0.66190
O357        O  0.98618352  0.77336480  0.25973415    -1.12790
C358        C  0.04516207  0.70861185  0.29399577     1.05390
O359        O  0.97935991  0.69511575  0.22815347    -0.79400
O360        O  0.98617219  0.69534155  0.27900057    -0.66980
Ni361      Ni  0.98864679  0.80962580  0.25774818     1.34870
C362        C  0.97588623  0.71172682  0.29427313     0.84120
O363        O  0.95971419  0.77352254  0.21161338    -0.79940
O364        O  0.95948936  0.81125793  0.23318917    -0.90210
C365        C  0.97476959  0.70567083  0.20634575     0.83700
O366        O  0.01342083  0.81062794  0.23007011    -0.68410
O367        O  0.03998579  0.69597705  0.27337471    -0.87700
C368        C  0.02168710  0.79494767  0.21295726     0.84530
C369        C  0.95170616  0.79670939  0.21467576     1.06100
H370        H  0.02944349  0.73633493  0.23979211     0.37900
O371        O  0.01237987  0.73322115  0.24796030    -1.10360
O372        O  0.98276781  0.73535062  0.29516335    -0.67010
Ni373      Ni  0.01206602  0.75337518  0.27870359     1.26350
O374        O  0.01391326  0.77148990  0.21124100    -0.67240
O375        O  0.03662647  0.73153024  0.29779879    -0.79530
C376        C  0.02329233  0.79897451  0.30254119     0.83910
O377        O  0.01340164  0.77689748  0.30705201    -0.66710
Ni378      Ni  0.00994651  0.69704281  0.25039513     1.27450
Ni379      Ni  0.98578465  0.75263789  0.22937227     1.26060
H380        H  0.96899293  0.77065124  0.26779483     0.38450
O381        O  0.55653385  0.96629607  0.03051983    -0.81500
O382        O  0.47779646  0.03330575  0.95820441    -0.66190
O383        O  0.52260589  0.00646238  0.01321432    -1.12790
C384        C  0.44451103  0.95673949  0.03152023     1.05390
O385        O  0.44445305  0.03683501  0.98572012    -0.79400
O386        O  0.44170729  0.01704661  0.03320045    -0.66980
Ni387      Ni  0.55727090  0.99338024  0.00503260     1.34870
C388        C  0.45965204  0.01876328  0.05055534     0.84120
O389        O  0.52726276  0.04475546  0.97544555    -0.79940
O390        O  0.56329972  0.01930483  0.97887647    -0.90210
C391        C  0.45514362  0.04286762  0.96429022     0.83700
O392        O  0.54324253  0.97023078  0.98000032    -0.68410
O393        O  0.43234369  0.96972046  0.01399624    -0.87700
C394        C  0.53230376  0.97757909  0.95900160     0.84530
C395        C  0.55153594  0.03935564  0.97009504     1.06100
H396        H  0.47721974  0.97991821  0.98290296     0.37900
O397        O  0.47673787  0.99371711  0.99548199    -1.10360
O398        O  0.48260947  0.00791320  0.04895286    -0.67010
Ni399      Ni  0.49650387  0.98212997  0.02508105     1.26350
O400        O  0.51644301  0.99699961  0.95797434    -0.67240
O401        O  0.46934040  0.95906180  0.03679629    -0.79530
C402        C  0.54185743  0.95997196  0.04953918     0.83910
O403        O  0.51845990  0.96918501  0.05285717    -0.66710
Ni404      Ni  0.44000580  0.00272641  0.99934312     1.27450
Ni405      Ni  0.50138583  0.01956971  0.98479526     1.26060
H406        H  0.52477749  0.02000373  0.02590796     0.38450
C407        C  0.28767605  0.76115802  0.29464632     0.02520
C408        C  0.29945938  0.77440588  0.27385849    -0.13630
C409        C  0.28931367  0.79841712  0.26584374     0.00020
C410        C  0.26758068  0.80942232  0.27897440    -0.12160
C411        C  0.25488234  0.79608299  0.29911677     0.02510
C412        C  0.26513484  0.77193027  0.30678748    -0.11580
H413        H  0.31692568  0.76636380  0.26433603     0.08110
H414        H  0.26115597  0.82878672  0.27394887     0.05640
H415        H  0.25628443  0.76196214  0.32308885     0.05480
O416        O  0.36689668  0.67200222  0.41038237    -0.75040
O417        O  0.32451259  0.61981740  0.37749983    -0.75070
O418        O  0.36279158  0.61989924  0.41476095    -0.75120
O419        O  0.32846328  0.67182346  0.37291311    -0.75170
O420        O  0.36044185  0.66758216  0.34303425    -0.75100
O421        O  0.39331180  0.61492648  0.38378668    -0.75080
O422        O  0.35534965  0.61543567  0.34664057    -0.75060
O423        O  0.39871532  0.66642016  0.38057254    -0.75120
Ni424      Ni  0.34453103  0.64609851  0.39498306     1.25410
Ni425      Ni  0.37803585  0.64094509  0.36242141     1.25360
C426        C  0.38989633  0.67758140  0.40103939     0.87140
C427        C  0.33302879  0.60879020  0.35681676     0.87080
C428        C  0.38358033  0.60849357  0.40580759     0.87100
C429        C  0.33906316  0.67846280  0.35129742     0.87270
C430        C  0.48861466  0.94643400  0.30112902     0.02520
C431        C  0.47317768  0.93786819  0.28020761    -0.13630
C432        C  0.45044017  0.95165770  0.27227176     0.00020
C433        C  0.44328840  0.97432057  0.28537104    -0.12160
C434        C  0.45879897  0.98353470  0.30628654     0.02510
C435        C  0.48188107  0.96956263  0.31376536    -0.11580
H436        H  0.47849750  0.92001983  0.27051392     0.08110
H437        H  0.42547679  0.98473951  0.27923352     0.05640
H438        H  0.49452135  0.97645840  0.32938154     0.05480
O439        O  0.58440681  0.86265866  0.32611428    -0.75040
O440        O  0.63991554  0.82281061  0.35928869    -0.75070
O441        O  0.58538733  0.82506754  0.36263667    -0.75120
O442        O  0.63877948  0.86009858  0.32262669    -0.75170
O443        O  0.64162325  0.89005569  0.35361266    -0.75100
O444        O  0.58924800  0.85446541  0.39398548    -0.75080
O445        O  0.64326161  0.85284780  0.39000948    -0.75060
O446        O  0.58766209  0.89203981  0.35761279    -0.75120
Ni447      Ni  0.61201465  0.84154057  0.34154688     1.25410
Ni448      Ni  0.61558817  0.87338141  0.37488459     1.25360
C449        C  0.57687006  0.88386032  0.33664892     0.87140
C450        C  0.65107292  0.83161567  0.37991278     0.87080
C451        C  0.57840493  0.83407399  0.38480234     0.87100
C452        C  0.64893478  0.88084566  0.33167746     0.87270
O453        O  0.36435120  0.85096388  0.17940617    -0.75040
O454        O  0.39896244  0.88687037  0.12457660    -0.75070
O455        O  0.40161899  0.88827059  0.17708323    -0.75120
O456        O  0.36181284  0.85012966  0.12676388    -0.75170
O457        O  0.32992694  0.88048793  0.12690223    -0.75100
O458        O  0.36885570  0.91770180  0.17863963    -0.75080
O459        O  0.36752034  0.91733994  0.12567056    -0.75060
O460        O  0.33142172  0.88028394  0.17948749    -0.75120
Ni461      Ni  0.38282705  0.86800787  0.15201263     1.25410
Ni462      Ni  0.34829444  0.90009023  0.15275395     1.25360
C463        C  0.34220798  0.85958890  0.18839564     0.87140
C464        C  0.38859956  0.90759735  0.11539358     0.87080
C465        C  0.39161966  0.90908658  0.18634085     0.87100
C466        C  0.33965943  0.85938225  0.11815135     0.87270
C467        C  0.26561266  0.95707167  0.45520881     0.02520
C468        C  0.27705173  0.97793477  0.44179545    -0.13630
C469        C  0.30052371  0.98968387  0.45113593     0.00020
C470        C  0.31311021  0.97968697  0.47347224    -0.12160
C471        C  0.30231102  0.95856900  0.48669199     0.02510
C472        C  0.27834482  0.94772792  0.47775037    -0.11580
H473        H  0.26825996  0.98446035  0.42365326     0.08110
H474        H  0.33189972  0.98779817  0.48005618     0.05640
H475        H  0.27007330  0.93131132  0.48792878     0.05480
C476        C  0.48811874  0.79192344  0.44099682     0.02520
C477        C  0.47518541  0.76934801  0.43270098    -0.13630
C478        C  0.45211045  0.76061846  0.44529136     0.00020
C479        C  0.44297452  0.77358501  0.46752831    -0.12160
C480        C  0.45559242  0.79620107  0.47633861     0.02510
C481        C  0.47832862  0.80507599  0.46296069    -0.11580
H482        H  0.48243870  0.75911557  0.41577326     0.08110
H483        H  0.42563772  0.76624286  0.47763773     0.05640
H484        H  0.48793217  0.82272969  0.46911818     0.05480
O485        O  0.38953557  0.91456808  0.57056269    -0.75040
O486        O  0.42962238  0.87942868  0.62341657    -0.75070
O487        O  0.42575418  0.87494180  0.57105390    -0.75120
O488        O  0.39409691  0.91879195  0.62275186    -0.75170
O489        O  0.36120690  0.89029653  0.62795698    -0.75100
O490        O  0.39240752  0.84694494  0.57568155    -0.75080
O491        O  0.39685219  0.85083146  0.62811064    -0.75060
O492        O  0.35646378  0.88623706  0.57548241    -0.75120
Ni493      Ni  0.41095817  0.89790388  0.59675100     1.25410
Ni494      Ni  0.37553270  0.86759112  0.60199002     1.25360
C495        C  0.36630390  0.90615486  0.56440352     0.87140
C496        C  0.41987814  0.85947178  0.63455440     0.87080
C497        C  0.41430676  0.85375701  0.56478368     0.87100
C498        C  0.37257199  0.91157944  0.63393816     0.87270
O499        O  0.41836018  0.08272037  0.37660781    -0.75040
O500        O  0.37217940  0.13333137  0.40856346    -0.75070
O501        O  0.37556588  0.08078834  0.40858055    -0.75120
O502        O  0.41567936  0.13504019  0.37724427    -0.75170
O503        O  0.38906593  0.13340330  0.34231604    -0.75100
O504        O  0.34732353  0.08054279  0.37486080    -0.75080
O505        O  0.34567048  0.13297935  0.37359416    -0.75060
O506        O  0.39025270  0.08124017  0.34292163    -0.75120
Ni507      Ni  0.39637902  0.10803379  0.39403912     1.25410
Ni508      Ni  0.36711142  0.10701342  0.35722391     1.25360
C509        C  0.41176260  0.07367782  0.35428068     0.87140
C510        C  0.35162187  0.14187543  0.39602190     0.87080
C511        C  0.35512247  0.07154440  0.39685877     0.87100
C512        C  0.40918399  0.14283085  0.35449681     0.87270
O513        O  0.16748737  0.84119190  0.38236381    -0.75040
O514        O  0.11498646  0.87752744  0.42144645    -0.75070
O515        O  0.11337034  0.84122531  0.38421508    -0.75120
O516        O  0.16952870  0.87839291  0.41915281    -0.75170
O517        O  0.16767620  0.90866159  0.38837462    -0.75100
O518        O  0.11184442  0.87189030  0.35375262    -0.75080
O519        O  0.11357208  0.90835842  0.39110226    -0.75060
O520        O  0.16596764  0.87124503  0.35148070    -0.75120
Ni521      Ni  0.14146323  0.85854703  0.40292757     1.25410
Ni522      Ni  0.13974379  0.89115629  0.37009921     1.25360
C523        C  0.17528215  0.84988277  0.36047183     0.87140
C524        C  0.10530489  0.89857287  0.41247658     0.87080
C525        C  0.10326428  0.85074454  0.36332890     0.87100
C526        C  0.17798713  0.89959232  0.40929108     0.87270
O527        O  0.76626331  0.02911782  0.18279172    -0.81500
O528        O  0.73309659  0.94832405  0.26081550    -0.66190
O529        O  0.73368739  0.01066494  0.22225146    -1.12790
C530        C  0.78821171  0.04092433  0.28882025     1.05390
O531        O  0.72304263  0.97024699  0.29647794    -0.79400
O532        O  0.71925568  0.02174263  0.29085544    -0.66980
Ni533      Ni  0.73369817  0.01007899  0.18550848     1.34870
C534        C  0.71958901  0.04276881  0.27824010     0.84120
O535        O  0.70906891  0.96222919  0.21734922    -0.79940
O536        O  0.70128946  0.99045498  0.18531788    -0.90210
C537        C  0.72158579  0.94995889  0.28259927     0.83700
O538        O  0.75450179  0.97942097  0.18097412    -0.68410
O539        O  0.77248232  0.02694412  0.30236831    -0.87700
C540        C  0.76712254  0.96475258  0.19663305     0.84530
C541        C  0.69714091  0.96897725  0.19654628     1.06100
H542        H  0.77522355  0.98605173  0.26240476     0.37900
O543        O  0.75838341  0.99533708  0.26261226    -1.10360
O544        O  0.73642217  0.04730499  0.26024689    -0.67010
Ni545      Ni  0.76217305  0.02563286  0.24204519     1.26350
O546        O  0.76302157  0.96452787  0.22100639    -0.67240
O547        O  0.78932339  0.03949525  0.26409693    -0.79530
C548        C  0.77542732  0.04838386  0.19509253     0.83910
O549        O  0.76799732  0.05354708  0.21817165    -0.66710
Ni550      Ni  0.74814233  0.99859950  0.29766084     1.27450
Ni551      Ni  0.73354562  0.97878829  0.24033476     1.26060
H552        H  0.71722990  0.01938605  0.22684060     0.38450
O553        O  0.79893635  0.27120054  0.03375399    -0.81500
O554        O  0.72919589  0.20018243  0.97207347    -0.66190
O555        O  0.76794690  0.25998623  0.99057432    -1.12790
C556        C  0.69318848  0.28873084  0.03357003     1.05390
O557        O  0.69019389  0.22091764  0.96745707    -0.79400
O558        O  0.70194285  0.27055965  0.96562695    -0.66980
Ni559      Ni  0.80455360  0.25808201  0.99959529     1.34870
C560        C  0.71321266  0.29187428  0.96996219     0.84120
O561        O  0.77777959  0.21695707  0.95979774    -0.79940
O562        O  0.81217696  0.24416925  0.96631780    -0.90210
C563        C  0.70610207  0.20249860  0.96200755     0.83700
O564        O  0.80537581  0.22439858  0.01409619    -0.68410
O565        O  0.68111475  0.27767551  0.01478860    -0.87700
C566        C  0.78737387  0.20809189  0.01914354     0.84530
C567        C  0.80165288  0.22460521  0.95550449     1.06100
H568        H  0.72110879  0.23131632  0.02011990     0.37900
O569        O  0.72286356  0.24263903  0.00531225    -1.10360
O570        O  0.72803766  0.29581148  0.98983290    -0.67010
Ni571      Ni  0.74322470  0.27209958  0.01554334     1.26350
O572        O  0.76369175  0.20939901  0.01021066    -0.67240
O573        O  0.71728573  0.28365441  0.03976543    -0.79530
C574        C  0.78766151  0.29249651  0.03881979     0.83910
O575        O  0.76632047  0.29919810  0.02703945    -0.66710
Ni576      Ni  0.68806100  0.24882075  0.99176828     1.27450
Ni577      Ni  0.74956050  0.22952425  0.98188006     1.26060
H578        H  0.76701839  0.27110018  0.97552543     0.38450
C579        C  0.29926272  0.30752172  0.76446034     0.02520
C580        C  0.27890255  0.32157321  0.77712683    -0.13630
C581        C  0.26656775  0.31186906  0.79964560     0.00020
C582        C  0.27542574  0.28821128  0.81006287    -0.12160
C583        C  0.29647827  0.27437381  0.79847906     0.02510
C584        C  0.30745129  0.28367141  0.77513900    -0.11580
H585        H  0.27297772  0.34036682  0.76984632     0.08110
H586        H  0.26629560  0.28085684  0.82760682     0.05640
H587        H  0.32299598  0.27256157  0.76561643     0.05480
C588        C  0.48368704  0.29972435  0.94846889     0.02520
C589        C  0.47143173  0.27903804  0.93550350    -0.13630
C590        C  0.44776701  0.26820083  0.94527585     0.00020
C591        C  0.43659655  0.27795999  0.96827666    -0.12160
C592        C  0.44910878  0.29801901  0.98184635     0.02510
C593        C  0.47298315  0.30831910  0.97208288    -0.11580
H594        H  0.47957576  0.27215341  0.91729287     0.08110
H595        H  0.41775366  0.27036493  0.97518232     0.05640
H596        H  0.48269320  0.32393609  0.98235791     0.05480
C597        C  0.45816857  0.48888986  0.79494557     0.02520
C598        C  0.44858589  0.47979784  0.77094412    -0.13630
C599        C  0.46057554  0.45830976  0.75924381     0.00020
C600        C  0.48322916  0.44693137  0.77055564    -0.12160
C601        C  0.49168385  0.45405844  0.79549203     0.02510
C602        C  0.47900871  0.47527752  0.80753800    -0.11580
H603        H  0.43121120  0.48872511  0.76190266     0.08110
H604        H  0.49328153  0.43149208  0.76029794     0.05640
H605        H  0.48496240  0.48099069  0.82693807     0.05480
C606        C  0.30139696  0.45775778  0.98183815     0.02520
C607        C  0.27848115  0.44864988  0.96876902    -0.13630
C608        C  0.26952652  0.46049731  0.94574173     0.00020
C609        C  0.28275182  0.48224444  0.93645615    -0.12160
C610        C  0.30576661  0.49132877  0.94884429     0.02510
C611        C  0.31523331  0.47891425  0.97135070    -0.11580
H612        H  0.26783340  0.43209970  0.97623852     0.08110
H613        H  0.27545233  0.49179917  0.91903781     0.05640
H614        H  0.33347737  0.48560660  0.98048745     0.05480
O615        O  0.38173496  0.58233677  0.83691919    -0.75040
O616        O  0.34348160  0.63632821  0.87155396    -0.75070
O617        O  0.38093208  0.63491813  0.83408738    -0.75120
O618        O  0.34455324  0.58412224  0.87482163    -0.75170
O619        O  0.37716280  0.58570947  0.90454250    -0.75100
O620        O  0.41295012  0.63632295  0.86422737    -0.75080
O621        O  0.37546212  0.63803745  0.90170450    -0.75060
O622        O  0.41422220  0.58410477  0.86669239    -0.75120
Ni623      Ni  0.36154634  0.60933506  0.85325147     1.25410
Ni624      Ni  0.39609317  0.61114001  0.88535133     1.25360
C625        C  0.40390668  0.57388152  0.84633565     0.87140
C626        C  0.35312724  0.64627484  0.89225939     0.87080
C627        C  0.40286935  0.64434256  0.84276406     0.87100
C628        C  0.35508907  0.57644102  0.89624037     0.87270
O629        O  0.58388204  0.40935943  0.87302028    -0.75040
O630        O  0.63669837  0.37496078  0.91353447    -0.75070
O631        O  0.63779007  0.40906539  0.87406949    -0.75120
O632        O  0.58247041  0.37411247  0.91166776    -0.75170
O633        O  0.58455803  0.34207252  0.88290366    -0.75100
O634        O  0.63888422  0.37742920  0.84504689    -0.75080
O635        O  0.63892704  0.34297306  0.88482573    -0.75060
O636        O  0.58479276  0.37765403  0.84391393    -0.75120
Ni637      Ni  0.61018786  0.39295146  0.89410823     1.25410
Ni638      Ni  0.61181416  0.35882248  0.86315934     1.25360
C639        C  0.57593806  0.39967801  0.85159840     0.87140
C640        C  0.64656902  0.35346711  0.90617877     0.87080
C641        C  0.64708120  0.39934668  0.85302035     0.87100
C642        C  0.57444957  0.35215259  0.90333377     0.87270
O643        O  0.35123041  0.37477107  0.66864801    -0.75040
O644        O  0.39331280  0.40609188  0.61439803    -0.75070
O645        O  0.35241371  0.37195219  0.61587332    -0.75120
O646        O  0.39142258  0.40990446  0.66646933    -0.75170
O647        O  0.42098094  0.37762824  0.67025562    -0.75100
O648        O  0.38223416  0.33975032  0.61814303    -0.75080
O649        O  0.42295005  0.37402018  0.61777950    -0.75060
O650        O  0.38081276  0.34253294  0.67089386    -0.75120
Ni651      Ni  0.37098185  0.39175596  0.64121061     1.25410
Ni652      Ni  0.40278078  0.35729873  0.64435546     1.25360
C653        C  0.35948612  0.35360305  0.67910196     0.87140
C654        C  0.41558961  0.39550636  0.60774918     0.87080
C655        C  0.36093479  0.34991970  0.60847522     0.87100
C656        C  0.41259473  0.40020854  0.67656312     0.87270
O657        O  0.37341810  0.41081753  0.07565865    -0.75040
O658        O  0.41169185  0.37261445  0.12820478    -0.75070
O659        O  0.40917268  0.37166432  0.07535886    -0.75120
O660        O  0.37656535  0.41246789  0.12810662    -0.75170
O661        O  0.34320635  0.38416595  0.13097910    -0.75100
O662        O  0.37573914  0.34342032  0.07710394    -0.75080
O663        O  0.37838335  0.34450426  0.12980574    -0.75060
O664        O  0.33992532  0.38265901  0.07802244    -0.75120
Ni665      Ni  0.39391875  0.39285294  0.10177796     1.25410
Ni666      Ni  0.35808360  0.36270208  0.10409472     1.25360
C667        C  0.35059418  0.40260292  0.06781117     0.87140
C668        C  0.40119502  0.35220376  0.13788393     0.87080
C669        C  0.39758811  0.35139511  0.06692109     0.87100
C670        C  0.35480358  0.40490266  0.13847019     0.87270
O671        O  0.40053426  0.17299041  0.87642195    -0.75040
O672        O  0.35877466  0.11989039  0.84396105    -0.75070
O673        O  0.36101689  0.17239686  0.84040406    -0.75120
O674        O  0.39895210  0.12109870  0.87989376    -0.75170
O675        O  0.36885805  0.12459265  0.91141039    -0.75100
O676        O  0.32991317  0.17531809  0.87121825    -0.75080
O677        O  0.32866607  0.12295029  0.87549027    -0.75060
O678        O  0.36943213  0.17683324  0.90720235    -0.75120
Ni679      Ni  0.38080390  0.14638626  0.85900329     1.25410
Ni680      Ni  0.34810271  0.14993308  0.89243588     1.25360
C681        C  0.39161232  0.18378068  0.89704717     0.87140
C682        C  0.33671464  0.11263832  0.85433483     0.87080
C683        C  0.33970692  0.18283400  0.84950172     0.87100
C684        C  0.39080540  0.11502472  0.90263361     0.87270
O685        O  0.17102361  0.42701705  0.86805459    -0.75040
O686        O  0.11421081  0.38938011  0.83496779    -0.75070
O687        O  0.11690514  0.43069515  0.86730061    -0.75120
O688        O  0.16854998  0.38658610  0.83494843    -0.75170
O689        O  0.16846058  0.36064869  0.86952015    -0.75100
O690        O  0.11338439  0.40319137  0.90045709    -0.75080
O691        O  0.11416531  0.36186164  0.86817685    -0.75060
O692        O  0.16750807  0.40112560  0.90252011    -0.75120
Ni693      Ni  0.14266526  0.40935710  0.85005499     1.25410
Ni694      Ni  0.14076585  0.38073512  0.88634056     1.25360
C695        C  0.17830260  0.42022386  0.89102270     0.87140
C696        C  0.10488446  0.36924570  0.84625792     0.87080
C697        C  0.10681079  0.42444385  0.88920236     0.87100
C698        C  0.17747463  0.36669245  0.84698444     0.87270
C699        C  0.70905842  0.72956737  0.20828936     0.02520
C700        C  0.73228814  0.71769160  0.19852341    -0.13630
C701        C  0.74245834  0.69501775  0.20973588     0.00020
C702        C  0.72969023  0.68421610  0.23131544    -0.12160
C703        C  0.70683551  0.69603879  0.24200936     0.02510
C704        C  0.69640974  0.71849273  0.23003895    -0.11580
H705        H  0.74207077  0.72561355  0.18156219     0.08110
H706        H  0.73702010  0.66609419  0.23916341     0.05640
H707        H  0.67802999  0.72696054  0.23727170     0.05480
O708        O  0.62721061  0.65347570  0.33262531    -0.75040
O709        O  0.58695035  0.61937178  0.38543652    -0.75070
O710        O  0.62715377  0.65426249  0.38550267    -0.75120
O711        O  0.58775188  0.61799715  0.33256725    -0.75170
O712        O  0.61864223  0.58679426  0.33329719    -0.75100
O713        O  0.65704238  0.62230088  0.38692923    -0.75080
O714        O  0.61652963  0.58720946  0.38631429    -0.75060
O715        O  0.65818711  0.62236976  0.33408256    -0.75120
Ni716      Ni  0.60621126  0.63737931  0.35904602     1.25410
Ni717      Ni  0.63866433  0.60351725  0.36026075     1.25360
C718        C  0.64902873  0.64347948  0.32430082     0.87140
C719        C  0.59481018  0.59766399  0.39468389     0.87080
C720        C  0.64873083  0.64426474  0.39491191     0.87100
C721        C  0.59727519  0.59674783  0.32364961     0.87270
C722        C  0.73645922  0.55188182  0.04205968     0.02520
C723        C  0.72850221  0.56264708  0.01798658    -0.13630
C724        C  0.70451420  0.55506612  0.00586514     0.00020
C725        C  0.68872151  0.53629878  0.01777777    -0.12160
C726        C  0.69675710  0.52495776  0.04111336     0.02510
C727        C  0.72027188  0.53297918  0.05350042    -0.11580
H728        H  0.74063992  0.57737801  0.00896622     0.08110
H729        H  0.66976567  0.53076152  0.00916618     0.05640
H730        H  0.72545927  0.52496487  0.07231255     0.05480
C731        C  0.50864565  0.70050268  0.04403407     0.02520
C732        C  0.51777761  0.69024219  0.02026532    -0.13630
C733        C  0.54219010  0.69848366  0.00952625     0.00020
C734        C  0.55780200  0.71630791  0.02315025    -0.12160
C735        C  0.54908924  0.72649152  0.04682574     0.02510
C736        C  0.52435818  0.71882595  0.05690417    -0.11580
H737        H  0.50607433  0.67575864  0.01028580     0.08110
H738        H  0.57714246  0.72185587  0.01553905     0.05640
H739        H  0.51765241  0.72665933  0.07526082     0.05480
C740        C  0.54198976  0.52115472  0.19821396     0.02520
C741        C  0.51842382  0.53300330  0.18930527    -0.13630
C742        C  0.50688280  0.55359632  0.20285169     0.00020
C743        C  0.51927850  0.56242215  0.22573330    -0.12160
C744        C  0.54223009  0.54996616  0.23585845     0.02510
C745        C  0.55336064  0.52916632  0.22186924    -0.11580
H746        H  0.50952123  0.52670644  0.17117973     0.08110
H747        H  0.51123132  0.57926990  0.23541184     0.05640
H748        H  0.57132557  0.51963860  0.22897107     0.05480
O749        O  0.41270161  0.62988694  0.16133109    -0.75040
O750        O  0.35882650  0.66992362  0.12775071    -0.75070
O751        O  0.35828113  0.63160389  0.16350235    -0.75120
O752        O  0.41314422  0.66703566  0.12453897    -0.75170
O753        O  0.40990234  0.63696653  0.09382224    -0.75100
O754        O  0.35561495  0.60250015  0.13171337    -0.75080
O755        O  0.35581628  0.64111032  0.09591054    -0.75060
O756        O  0.40985733  0.59982653  0.13053249    -0.75120
Ni757      Ni  0.38576500  0.65066895  0.14541449     1.25410
Ni758      Ni  0.38259196  0.61905350  0.11189830     1.25360
C759        C  0.42072879  0.60872515  0.15132152     0.87140
C760        C  0.34889370  0.66277462  0.10607852     0.87080
C761        C  0.34813824  0.61103354  0.15375779     0.87100
C762        C  0.42105839  0.65709028  0.10298553     0.87270
O763        O  0.61212765  0.43097693  0.14458438    -0.75040
O764        O  0.64849439  0.38102048  0.10313288    -0.75070
O765        O  0.64756204  0.43314639  0.10517083    -0.75120
O766        O  0.61346677  0.37902599  0.14203158    -0.75170
O767        O  0.57976444  0.37973938  0.11371162    -0.75100
O768        O  0.61404367  0.43391997  0.07625802    -0.75080
O769        O  0.61467803  0.38139844  0.07461665    -0.75060
O770        O  0.57862710  0.43228291  0.11573374    -0.75120
Ni771      Ni  0.63159991  0.40611312  0.12471766     1.25410
Ni772      Ni  0.59552040  0.40695279  0.09403393     1.25360
C773        C  0.58944973  0.43985998  0.13698400     0.87140
C774        C  0.63702644  0.37219550  0.08277077     0.87080
C775        C  0.63646214  0.44237587  0.08473346     0.87100
C776        C  0.59157874  0.36965982  0.13346471     0.87270
O777        O  0.62889868  0.59718720  0.91259176    -0.75040
O778        O  0.58824705  0.63253811  0.85974442    -0.75070
O779        O  0.62832212  0.59720371  0.86007874    -0.75120
O780        O  0.58835440  0.63165618  0.91246539    -0.75170
O781        O  0.61781659  0.66377094  0.91285014    -0.75100
O782        O  0.65862823  0.62856657  0.85980979    -0.75080
O783        O  0.61809760  0.66416820  0.86002112    -0.75060
O784        O  0.65853775  0.62913894  0.91258902    -0.75120
Ni785      Ni  0.60739747  0.61357425  0.88611146     1.25410
Ni786      Ni  0.63932200  0.64760270  0.88620604     1.25360
C787        C  0.65019055  0.60768199  0.92165800     0.87140
C788        C  0.59625332  0.65449100  0.85145374     0.87080
C789        C  0.65043306  0.60645197  0.85199777     0.87100
C790        C  0.59678727  0.65287048  0.92194234     0.87270
O791        O  0.83356451  0.65348533  0.13172738    -0.75040
O792        O  0.88688703  0.61948915  0.09012083    -0.75070
O793        O  0.83296186  0.61946292  0.09225033    -0.75120
O794        O  0.88775024  0.65438367  0.12876481    -0.75170
O795        O  0.89049415  0.62253510  0.15775009    -0.75100
O796        O  0.83413083  0.58705385  0.12057923    -0.75080
O797        O  0.88877477  0.58733881  0.11888159    -0.75060
O798        O  0.83602757  0.62136285  0.16055345    -0.75120
Ni799      Ni  0.86025494  0.63781844  0.10976803     1.25410
Ni800      Ni  0.86245463  0.60338038  0.14052103     1.25360
C801        C  0.82588617  0.64277315  0.15288456     0.87140
C802        C  0.89628939  0.59759018  0.09753234     0.87080
C803        C  0.82398906  0.59794291  0.10027358     0.87100
C804        C  0.89847766  0.64439339  0.14898008     0.87270
O805        O  0.59381936  0.81456656  0.12267524    -0.75040
O806        O  0.62506809  0.87039847  0.16028637    -0.75070
O807        O  0.58736988  0.86656883  0.12310839    -0.75120
O808        O  0.63140710  0.81826928  0.16050348    -0.75170
O809        O  0.66259763  0.82060157  0.12973404    -0.75100
O810        O  0.61925699  0.87070282  0.09316001    -0.75080
O811        O  0.65707366  0.87292229  0.13033559    -0.75060
O812        O  0.62490590  0.81854022  0.09195187    -0.75120
Ni813      Ni  0.60832423  0.84225194  0.14273234     1.25410
Ni814      Ni  0.64213141  0.84576761  0.11023224     1.25360
C815        C  0.60399467  0.80766424  0.10093569     0.87140
C816        C  0.64593803  0.88124360  0.15106469     0.87080
C817        C  0.59630304  0.87703716  0.10238109     0.87100
C818        C  0.65392283  0.81101573  0.15109197     0.87270
O819        O  0.75954496  0.54681366  0.69177708    -0.81500
O820        O  0.72943983  0.45442334  0.76888072    -0.66190
O821        O  0.73289601  0.51762725  0.73015506    -1.12790
C822        C  0.79148784  0.54762790  0.79404982     1.05390
O823        O  0.73766495  0.47166213  0.80755821    -0.79400
O824        O  0.72607591  0.52075334  0.80329085    -0.66980
Ni825      Ni  0.73713712  0.51691895  0.69325566     1.34870
C826        C  0.72116231  0.54174618  0.79147547     0.84120
O827        O  0.70388056  0.47135445  0.72766109    -0.79940
O828        O  0.71560102  0.48687177  0.68902791    -0.90210
C829        C  0.72658330  0.45492247  0.79340798     0.83700
O830        O  0.76830069  0.49602804  0.69490799    -0.68410
O831        O  0.77857081  0.53281559  0.80887189    -0.87700
C832        C  0.77245038  0.47492440  0.70680984     0.84530
C833        C  0.70372637  0.47041448  0.70300950     1.06100
H834        H  0.77778791  0.49090169  0.76420450     0.37900
O835        O  0.76132048  0.49995538  0.76809201    -1.10360
O836        O  0.73531136  0.54924419  0.77233998    -0.67010
Ni837      Ni  0.76150126  0.53222241  0.75002285     1.26350
O838        O  0.75843705  0.46776979  0.72632276    -0.67240
O839        O  0.79060658  0.54584212  0.76959131    -0.79530
C840        C  0.76651396  0.56481218  0.70699476     0.83910
O841        O  0.76192450  0.56368501  0.73104895    -0.66710
Ni842      Ni  0.75846822  0.50179035  0.80514045     1.27450
Ni843      Ni  0.73216426  0.48531259  0.74833257     1.26060
H844        H  0.71639755  0.52676152  0.73373556     0.38450
O845        O  0.98323249  0.04125357  0.54706633    -0.81500
O846        O  0.00533811  0.95271882  0.47391473    -0.66190
O847        O  0.01155395  0.01648632  0.50832258    -1.12790
C848        C  0.94824498  0.04458377  0.44599322     1.05390
O849        O  0.01017847  0.97215575  0.43592854    -0.79400
O850        O  0.01165597  0.02317961  0.43198197    -0.66980
Ni851      Ni  0.01369963  0.01879246  0.54482706     1.34870
C852        C  0.01917625  0.04255366  0.44506075     0.84120
O853        O  0.03581443  0.96800162  0.51327500    -0.79940
O854        O  0.04422918  0.99632210  0.54502077    -0.90210
C855        C  0.01530391  0.95363785  0.45141729     0.83700
O856        O  0.99133077  0.99044023  0.55389833    -0.68410
O857        O  0.95733770  0.02632101  0.43188064    -0.87700
C858        C  0.97871422  0.97359089  0.54094456     0.84530
C859        C  0.04891218  0.97510780  0.53328022     1.06100
H860        H  0.96378340  0.99292732  0.47687074     0.37900
O861        O  0.98085735  0.00041859  0.47250248    -1.10360
O862        O  0.00890788  0.04865556  0.46686288    -0.67010
Ni863      Ni  0.98292696  0.03270538  0.48972055     1.26350
O864        O  0.98117488  0.97095403  0.51642264    -0.67240
O865        O  0.95457889  0.04785396  0.46976400    -0.79530
C866        C  0.97750511  0.06136677  0.53392590     0.83910
O867        O  0.98400516  0.06326138  0.51021227    -0.66710
Ni868      Ni  0.98338456  0.99906790  0.43566145     1.27450
Ni869      Ni  0.00814664  0.98384939  0.49265475     1.26060
H870        H  0.02822174  0.02352764  0.50212856     0.38450
C871        C  0.50536437  0.05453562  0.69911829     0.02520
C872        C  0.51414277  0.03221296  0.68638421    -0.13630
C873        C  0.53716858  0.01889620  0.69469338     0.00020
C874        C  0.55140215  0.02824423  0.71627748    -0.12160
C875        C  0.54224897  0.04984293  0.73007081     0.02510
C876        C  0.51942283  0.06312600  0.72111866    -0.11580
H877        H  0.50361119  0.02585386  0.66916787     0.08110
H878        H  0.56996894  0.01902055  0.72214338     0.05640
H879        H  0.51308063  0.08063045  0.73082475     0.05480
C880        C  0.74313706  0.05544859  0.53272073     0.02520
C881        C  0.73457650  0.06628871  0.50910808    -0.13630
C882        C  0.71175423  0.05694771  0.49638343     0.00020
C883        C  0.69877270  0.03520047  0.50627925    -0.12160
C884        C  0.70742095  0.02370685  0.52955990     0.02510
C885        C  0.72932211  0.03428409  0.54298493    -0.11580
H886        H  0.74490805  0.08288303  0.50129982     0.08110
H887        H  0.68113764  0.02790259  0.49645858     0.05640
H888        H  0.73494821  0.02670884  0.56187515     0.05480
C889        C  0.55575028  0.20093487  0.50417371     0.02520
C890        C  0.56809675  0.22212938  0.51622265    -0.13630
C891        C  0.55646157  0.23415907  0.53786528     0.00020
C892        C  0.53122029  0.22596029  0.54622070    -0.12160
C893        C  0.51900818  0.20438277  0.53517125     0.02510
C894        C  0.53103097  0.19210669  0.51380464    -0.11580
H895        H  0.58721781  0.22882714  0.50911618     0.08110
H896        H  0.52148481  0.23562084  0.56229554     0.05640
H897        H  0.52180058  0.17515763  0.50547498     0.05480
O898        O  0.62931595  0.16680178  0.40507532    -0.75040
O899        O  0.66731112  0.13256893  0.35000567    -0.75070
O900        O  0.62786782  0.16831928  0.35198846    -0.75120
O901        O  0.66887205  0.13132404  0.40272112    -0.75170
O902        O  0.63867767  0.09977859  0.40216200    -0.75100
O903        O  0.59702641  0.13755276  0.35235245    -0.75080
O904        O  0.63632565  0.10203234  0.34964555    -0.75060
O905        O  0.59889999  0.13546693  0.40492038    -0.75120
Ni906      Ni  0.64940207  0.15091588  0.37743836     1.25410
Ni907      Ni  0.61666160  0.11761134  0.37728278     1.25360
C908        C  0.60804688  0.15651986  0.41426138     0.87140
C909        C  0.65788853  0.11167926  0.34047709     0.87080
C910        C  0.60591691  0.15884869  0.34337987     0.87100
C911        C  0.66051260  0.10947665  0.41076500     0.87270
O912        O  0.41947405  0.10914350  0.62104228    -0.75040
O913        O  0.36391973  0.14899550  0.58763858    -0.75070
O914        O  0.41811968  0.14677119  0.58423612    -0.75120
O915        O  0.36569479  0.11059412  0.62281243    -0.75170
O916        O  0.36710951  0.14004425  0.65434188    -0.75100
O917        O  0.42203322  0.17576692  0.61599499    -0.75080
O918        O  0.36760256  0.17832885  0.61897700    -0.75060
O919        O  0.42108788  0.13835192  0.65277923    -0.75120
Ni920      Ni  0.39174044  0.12788398  0.60276069     1.25410
Ni921      Ni  0.39457077  0.15925503  0.63659811     1.25360
C922        C  0.42909211  0.11723051  0.64272239     0.87140
C923        C  0.35652107  0.17028211  0.59819211     0.87080
C924        C  0.42910841  0.16680734  0.59375098     0.87100
C925        C  0.35769319  0.11912525  0.64468438     0.87270
C926        C  0.71022848  0.23685112  0.70963985     0.02520
C927        C  0.73146027  0.22429328  0.69719952    -0.13630
C928        C  0.74257211  0.20170208  0.70766314     0.00020
C929        C  0.73249331  0.19175125  0.73089836    -0.12160
C930        C  0.71075653  0.20372481  0.74319421     0.02510
C931        C  0.69998622  0.22654954  0.73269827    -0.11580
H932        H  0.73849602  0.23140821  0.67864418     0.08110
H933        H  0.74051367  0.17380062  0.73850110     0.05640
H934        H  0.68276612  0.23557782  0.74175739     0.05480
O935        O  0.63452157  0.32372464  0.58691872    -0.75040
O936        O  0.66742727  0.37537549  0.62953862    -0.75070
O937        O  0.66809084  0.32319050  0.62873167    -0.75120
O938        O  0.63493618  0.37606665  0.58778162    -0.75170
O939        O  0.60006311  0.37575162  0.61464951    -0.75100
O940        O  0.63282622  0.32261253  0.65519322    -0.75080
O941        O  0.63257075  0.37466394  0.65617976    -0.75060
O942        O  0.59959638  0.32372353  0.61378825    -0.75120
Ni943      Ni  0.65253932  0.34950139  0.60727324     1.25410
Ni944      Ni  0.61501122  0.34911135  0.63583809     1.25360
C945        C  0.61139485  0.31533376  0.59345341     0.87140
C946        C  0.65511974  0.38403922  0.64961158     0.87080
C947        C  0.65602603  0.31429960  0.64869292     0.87100
C948        C  0.61231551  0.38513806  0.59498438     0.87270
O949        O  0.61585695  0.93789316  0.64248765    -0.75040
O950        O  0.66118732  0.88945304  0.60808991    -0.75070
O951        O  0.65491140  0.94084406  0.60607592    -0.75120
O952        O  0.62306206  0.88630582  0.64442827    -0.75170
O953        O  0.59249485  0.88093618  0.61314789    -0.75100
O954        O  0.62341783  0.93752422  0.57539627    -0.75080
O955        O  0.63052521  0.88570190  0.57668956    -0.75060
O956        O  0.58436480  0.93247817  0.61220576    -0.75120
Ni957      Ni  0.63978322  0.91389883  0.62638356     1.25410
Ni958      Ni  0.60655251  0.90910885  0.59319945     1.25360
C959        C  0.59255147  0.94298892  0.63320138     0.87140
C960        C  0.65296332  0.87920554  0.58696278     0.87080
C961        C  0.64495896  0.94778171  0.58421684     0.87100
C962        C  0.60314870  0.87418582  0.63483823     0.87270
O963        O  0.83097248  0.16441553  0.62610951    -0.75040
O964        O  0.88497519  0.13572120  0.58256619    -0.75070
O965        O  0.83069707  0.13172200  0.58513692    -0.75120
O966        O  0.88464223  0.16786690  0.62331000    -0.75170
O967        O  0.88803973  0.13447934  0.65045105    -0.75100
O968        O  0.83504495  0.09799025  0.61178772    -0.75080
O969        O  0.88908414  0.10244879  0.60983901    -0.75060
O970        O  0.83425152  0.13054946  0.65279671    -0.75120
Ni971      Ni  0.85755997  0.15106612  0.60323289     1.25410
Ni972      Ni  0.86167849  0.11511602  0.63212850     1.25360
C973        C  0.82423507  0.15255268  0.64685835     0.87140
C974        C  0.89689759  0.11505130  0.58989459     0.87080
C975        C  0.82380186  0.10903684  0.59231387     0.87100
C976        C  0.89544273  0.15692930  0.64307883     0.87270
O977        O  0.63117319  0.15086780  0.82604373    -0.75040
O978        O  0.59432120  0.11255721  0.87751117    -0.75070
O979        O  0.63278029  0.14870226  0.87811227    -0.75120
O980        O  0.59311472  0.11428728  0.82506700    -0.75170
O981        O  0.62510869  0.08415059  0.82281072    -0.75100
O982        O  0.66395718  0.11766807  0.87730747    -0.75080
O983        O  0.62532785  0.08148091  0.87565522    -0.75060
O984        O  0.66341983  0.12087745  0.82493924    -0.75120
Ni985      Ni  0.61170082  0.13262676  0.85175897     1.25410
Ni986      Ni  0.64555491  0.09985398  0.85009838     1.25360
C987        C  0.65337962  0.14237099  0.81717453     0.87140
C988        C  0.60369330  0.09087346  0.88521142     0.87080
C989        C  0.65490630  0.13896160  0.88630152     0.87100
C990        C  0.60293900  0.09388569  0.81474921     0.87270
C991        C  0.01135939  0.71807786  0.55748622     0.02520
C992        C  0.02225543  0.74198385  0.56451808    -0.13630
C993        C  0.04636457  0.75065395  0.55349232     0.00020
C994        C  0.05883338  0.73531613  0.53446380    -0.12160
C995        C  0.04760750  0.71178888  0.52654328     0.02510
C996        C  0.02380102  0.70340011  0.53809649    -0.11580
H997        H  0.01233517  0.75342595  0.57925069     0.08110
H998        H  0.07767219  0.74133206  0.52618940     0.05640
H999        H  0.01546767  0.68491448  0.53267395     0.05480
O1000       O  0.15444267  0.61657489  0.43676633    -0.75040
O1001       O  0.11868359  0.65628743  0.38443818    -0.75070
O1002       O  0.12000611  0.65693479  0.43697061    -0.75120
O1003       O  0.15296086  0.61604948  0.38387732    -0.75170
O1004       O  0.11866434  0.58869255  0.38498338    -0.75100
O1005       O  0.08532886  0.63002930  0.43765926    -0.75080
O1006       O  0.08431101  0.62902661  0.38520559    -0.75060
O1007       O  0.11993787  0.58940643  0.43795686    -0.75120
Ni1008     Ni  0.13778047  0.63738023  0.41051308     1.25410
Ni1009     Ni  0.10085917  0.60825829  0.41154843     1.25360
C1010       C  0.14287656  0.59675395  0.44623013     0.87140
C1011       C  0.09589114  0.64891455  0.37585513     0.87080
C1012       C  0.09703312  0.65045410  0.44572466     0.87100
C1013       C  0.14082602  0.59616137  0.37513670     0.87270
C1014       C  0.20845847  0.74849697  0.69882770     0.02520
C1015       C  0.19583124  0.73830251  0.72081217    -0.13630
C1016       C  0.20529119  0.71540549  0.73211001     0.00020
C1017       C  0.22720837  0.70264989  0.72127926    -0.12160
C1018       C  0.24017077  0.71271377  0.69960735     0.02510
C1019       C  0.23112755  0.73603955  0.68864183    -0.11580
H1020       H  0.17808703  0.74765572  0.72850041     0.08110
H1021       H  0.23350596  0.68413929  0.72909793     0.05640
H1022       H  0.24081576  0.74374883  0.67153974     0.05480
C1023       C  0.23664234  0.54561482  0.56022866     0.02520
C1024       C  0.22307503  0.55717608  0.53925707    -0.13630
C1025       C  0.20044172  0.54552891  0.52842185     0.00020
C1026       C  0.19067329  0.52264028  0.53902422    -0.12160
C1027       C  0.20370641  0.51086574  0.56017824     0.02510
C1028       C  0.22670441  0.52249545  0.57074476    -0.11580
H1029       H  0.22986622  0.57545182  0.53156144     0.08110
H1030       H  0.17243656  0.51440826  0.53122507     0.05640
H1031       H  0.23670430  0.51368965  0.58727543     0.05480
O1032       O  0.33476983  0.63107777  0.66645800    -0.75040
O1033       O  0.38718155  0.59222128  0.62794776    -0.75070
O1034       O  0.38928702  0.62869429  0.66492599    -0.75120
O1035       O  0.33267496  0.59332077  0.63034135    -0.75170
O1036       O  0.33254712  0.62244430  0.59842398    -0.75100
O1037       O  0.38829409  0.65911281  0.63440824    -0.75080
O1038       O  0.38680794  0.62283202  0.59757835    -0.75060
O1039       O  0.33400627  0.66002678  0.63433415    -0.75120
Ni1040     Ni  0.36095326  0.61021255  0.64855112     1.25410
Ni1041     Ni  0.36036664  0.64215903  0.61511791     1.25360
C1042       C  0.32548330  0.65186597  0.65613256     0.87140
C1043       C  0.39633840  0.60186851  0.60679322     0.87080
C1044       C  0.39845995  0.64954003  0.65533031     0.87100
C1045       C  0.32305035  0.60201924  0.60897633     0.87270
C1046       C  0.03501659  0.52040264  0.69424724     0.02520
C1047       C  0.04926707  0.53315513  0.71405106    -0.13630
C1048       C  0.03925503  0.55603425  0.72511869     0.00020
C1049       C  0.01462529  0.56588581  0.71635822    -0.12160
C1050       C  0.00118656  0.55458763  0.69541017     0.02510
C1051       C  0.01111542  0.53151364  0.68474874    -0.11580
H1052       H  0.06843061  0.52552110  0.72047490     0.08110
H1053       H  0.00646708  0.58323267  0.72504837     0.05640
H1054       H  0.00048186  0.52248356  0.66882015     0.05480
O1055       O  0.12485691  0.41912048  0.59435511    -0.75040
O1056       O  0.07696868  0.37081219  0.62554142    -0.75070
O1057       O  0.08076304  0.42302539  0.62447840    -0.75120
O1058       O  0.12123460  0.36669129  0.59559212    -0.75170
O1059       O  0.14793151  0.36654691  0.63045909    -0.75100
O1060       O  0.10581442  0.42101404  0.66035242    -0.75080
O1061       O  0.10343063  0.36868974  0.66050352    -0.75060
O1062       O  0.14995459  0.41894154  0.63029014    -0.75120
Ni1063     Ni  0.10006728  0.39490262  0.60869859     1.25410
Ni1064     Ni  0.12770330  0.39369740  0.64665057     1.25360
C1065       C  0.14475231  0.42766382  0.60750868     0.87140
C1066       C  0.08223166  0.36191879  0.64822030     0.87080
C1067       C  0.08684368  0.43151537  0.64712650     0.87100
C1068       C  0.14125470  0.35739441  0.60828276     0.87270
O1069       O  0.91025808  0.63875012  0.66563144    -0.75040
O1070       O  0.86049113  0.68674283  0.63481458    -0.75070
O1071       O  0.85646696  0.64661952  0.66781735    -0.75120
O1072       O  0.91435731  0.67959238  0.63266367    -0.75170
O1073       O  0.90855153  0.65372135  0.59858791    -0.75100
O1074       O  0.85184054  0.61961032  0.63450497    -0.75080
O1075       O  0.85490917  0.65963841  0.60173813    -0.75060
O1076       O  0.90565956  0.61295389  0.63126631    -0.75120
Ni1077     Ni  0.88566087  0.66386414  0.65147468     1.25410
Ni1078     Ni  0.88009569  0.63551980  0.61537021     1.25360
C1079       C  0.91619920  0.61800246  0.65333744     0.87140
C1080       C  0.84919558  0.68077132  0.61327487     0.87080
C1081       C  0.84416198  0.62808860  0.65664487     0.87100
C1082       C  0.92067732  0.67246675  0.60965443     0.87270
O1083       O  0.13024387  0.84006290  0.58797588    -0.75040
O1084       O  0.17425729  0.89271699  0.61869964    -0.75070
O1085       O  0.16985400  0.84094005  0.62422197    -0.75120
O1086       O  0.13527718  0.89165865  0.58178886    -0.75170
O1087       O  0.10543808  0.89898602  0.61315327    -0.75100
O1088       O  0.13855691  0.84609852  0.65464800    -0.75080
O1089       O  0.14408233  0.89810083  0.64995335    -0.75060
O1090       O  0.09930153  0.84731706  0.61819593    -0.75120
Ni1091     Ni  0.15351011  0.86616023  0.60206572     1.25410
Ni1092     Ni  0.12076041  0.87286455  0.63508750     1.25360
C1093       C  0.10754400  0.83483185  0.59831152     0.87140
C1094       C  0.16643413  0.90403380  0.63955237     0.87080
C1095       C  0.15969917  0.83485514  0.64612187     0.87100
C1096       C  0.11489280  0.90377137  0.59056664     0.87270
O1097       O  0.11742507  0.59947444  0.81653615    -0.75040
O1098       O  0.15720462  0.63484939  0.86884783    -0.75070
O1099       O  0.11751794  0.60058147  0.86923331    -0.75120
O1100       O  0.15712877  0.63505720  0.81618421    -0.75170
O1101       O  0.12621311  0.66636669  0.81565854    -0.75100
O1102       O  0.08729840  0.63256981  0.86846950    -0.75080
O1103       O  0.12718395  0.66677495  0.86827373    -0.75060
O1104       O  0.08688132  0.63103284  0.81592990    -0.75120
Ni1105     Ni  0.13841717  0.61632991  0.84258170     1.25410
Ni1106     Ni  0.10583462  0.65033120  0.84198362     1.25360
C1107       C  0.09549219  0.60911395  0.80784038     0.87140
C1108       C  0.14817868  0.65605403  0.87805054     0.87080
C1109       C  0.09628689  0.61147783  0.87790867     0.87100
C1110       C  0.14796457  0.65647343  0.80728971     0.87270
C1111       C  0.75418246  0.31191319  0.28158292     0.02520
C1112       C  0.76866248  0.31963589  0.25991518    -0.13630
C1113       C  0.79075541  0.30528173  0.25157274     0.00020
C1114       C  0.79883250  0.28340417  0.26564232    -0.12160
C1115       C  0.78485508  0.27586828  0.28795605     0.02510
C1116       C  0.76196856  0.28978066  0.29539347    -0.11580
H1117       H  0.76354968  0.33767011  0.25037269     0.08110
H1118       H  0.81668395  0.27292430  0.25987320     0.05640
H1119       H  0.75099038  0.28417833  0.31259342     0.05480
O1120       O  0.66910751  0.39394017  0.39092062    -0.75040
O1121       O  0.61457372  0.36175683  0.35017042    -0.75070
O1122       O  0.66855124  0.36372314  0.34864727    -0.75120
O1123       O  0.61575785  0.39130649  0.39292695    -0.75170
O1124       O  0.61218197  0.42637021  0.36781067    -0.75100
O1125       O  0.66612607  0.39829033  0.32275748    -0.75080
O1126       O  0.61169442  0.39647830  0.32463949    -0.75060
O1127       O  0.66637271  0.42877671  0.36566344    -0.75120
Ni1128     Ni  0.64209616  0.37643112  0.37142592     1.25410
Ni1129     Ni  0.63900607  0.41378840  0.34422552     1.25360
C1130       C  0.67640126  0.41692239  0.38533077     0.87140
C1131       C  0.60366523  0.37400266  0.33117976     0.87080
C1132       C  0.67641338  0.37640547  0.32890033     0.87100
C1133       C  0.60549689  0.41328581  0.38790044     0.87270
C1134       C  0.78825162  0.46641789  0.48706882     0.02520
C1135       C  0.76751694  0.45444218  0.47299108    -0.13630
C1136       C  0.76003480  0.46345196  0.44814867     0.00020
C1137       C  0.77331422  0.48477544  0.43765823    -0.12160
C1138       C  0.79314670  0.49766618  0.45175762     0.02510
C1139       C  0.80043433  0.48845300  0.47647203    -0.11580
H1140       H  0.75790115  0.43755618  0.48090887     0.08110
H1141       H  0.76866436  0.49098309  0.41802922     0.05640
H1142       H  0.81634625  0.49793465  0.48710238     0.05480
C1143       C  0.95778406  0.49086751  0.29169221     0.02520
C1144       C  0.97845153  0.47747515  0.30450921    -0.13630
C1145       C  0.99054467  0.45577759  0.29311940     0.00020
C1146       C  0.98068057  0.44675806  0.26922103    -0.12160
C1147       C  0.95935777  0.45928693  0.25651621     0.02510
C1148       C  0.94826426  0.48162648  0.26774766    -0.11580
H1149       H  0.98457571  0.48358707  0.32373638     0.08110
H1150       H  0.98896147  0.42928282  0.26094700     0.05640
H1151       H  0.93170062  0.49144036  0.25821117     0.05480
C1152       C  0.97666925  0.30520863  0.45354246     0.02520
C1153       C  0.96316214  0.28488186  0.44139206    -0.13630
C1154       C  0.93804580  0.27701393  0.45034303     0.00020
C1155       C  0.92653320  0.28929632  0.47180310    -0.12160
C1156       C  0.93974298  0.30952010  0.48452582     0.02510
C1157       C  0.96515299  0.31712719  0.47543050    -0.11580
H1158       H  0.97166454  0.27591380  0.42427414     0.08110
H1159       H  0.90690572  0.28330185  0.47828024     0.05640
H1160       H  0.97584532  0.33253046  0.48503320     0.05480
O1161       O  0.07891972  0.40566524  0.37143849    -0.75040
O1162       O  0.13102155  0.36683911  0.41008462    -0.75070
O1163       O  0.13277504  0.40445263  0.37400476    -0.75120
O1164       O  0.07656757  0.36882088  0.40829139    -0.75170
O1165       O  0.07736339  0.33791893  0.37820213    -0.75100
O1166       O  0.13349763  0.37477336  0.34270465    -0.75080
O1167       O  0.13216768  0.33701107  0.37891122    -0.75060
O1168       O  0.07915397  0.37510115  0.34106874    -0.75120
Ni1169     Ni  0.10485644  0.38742854  0.39208610     1.25410
Ni1170     Ni  0.10557467  0.35507474  0.35910696     1.25360
C1171       C  0.07030166  0.39655340  0.34985569     0.87140
C1172       C  0.14021571  0.34562362  0.40080411     0.87080
C1173       C  0.14207916  0.39591218  0.35259846     0.87100
C1174       C  0.06724832  0.34794021  0.39880677     0.87270
O1175       O  0.86212391  0.35022621  0.57934605    -0.75040
O1176       O  0.82567133  0.38749863  0.63377065    -0.75070
O1177       O  0.82624915  0.39000565  0.58089781    -0.75120
O1178       O  0.86098257  0.34735373  0.63219619    -0.75170
O1179       O  0.89524228  0.37471756  0.63365457    -0.75100
O1180       O  0.85999222  0.41784332  0.58307592    -0.75080
O1181       O  0.85995442  0.41467572  0.63575425    -0.75060
O1182       O  0.89555096  0.37843113  0.58126403    -0.75120
Ni1183     Ni  0.84251834  0.36776986  0.60651202     1.25410
Ni1184     Ni  0.87881904  0.39740147  0.60857634     1.25360
C1185       C  0.88494169  0.35830752  0.57135547     0.87140
C1186       C  0.83696626  0.40735366  0.64374188     0.87080
C1187       C  0.83762746  0.41069999  0.57314384     0.87100
C1188       C  0.88402980  0.35376641  0.64098107     0.87270
O1189       O  0.87621284  0.34652866  0.16790603    -0.75040
O1190       O  0.91504264  0.37762155  0.11308929    -0.75070
O1191       O  0.91572905  0.38180938  0.16577897    -0.75120
O1192       O  0.87441983  0.34344825  0.11575399    -0.75170
O1193       O  0.84483303  0.37582310  0.11385398    -0.75100
O1194       O  0.88490061  0.41308580  0.16402216    -0.75080
O1195       O  0.88518532  0.40987330  0.11149711    -0.75060
O1196       O  0.84540669  0.37788828  0.16582591    -0.75120
Ni1197     Ni  0.89651238  0.36122410  0.14065129     1.25410
Ni1198     Ni  0.86409196  0.39535979  0.13871397     1.25360
C1199       C  0.85438198  0.35679716  0.17563362     0.87140
C1200       C  0.90645362  0.39868817  0.10323499     0.87080
C1201       C  0.90636398  0.40353211  0.17373558     0.87100
C1202       C  0.85263903  0.35346296  0.10680025     0.87270
O1203       O  0.87604858  0.58200436  0.40463191    -0.75040
O1204       O  0.91435877  0.63486983  0.36956371    -0.75070
O1205       O  0.87547635  0.63393551  0.40550398    -0.75120
O1206       O  0.91458972  0.58236332  0.36785912    -0.75170
O1207       O  0.88281639  0.58293774  0.33727110    -0.75100
O1208       O  0.84473694  0.63527252  0.37397302    -0.75080
O1209       O  0.88392921  0.63558781  0.33796803    -0.75060
O1210       O  0.84429051  0.58322913  0.37407473    -0.75120
Ni1211     Ni  0.89628145  0.60825701  0.38792980     1.25410
Ni1212     Ni  0.86289586  0.60927932  0.35463059     1.25360
C1213       C  0.85381275  0.57399983  0.39538041     0.87140
C1214       C  0.90535313  0.64454491  0.34834879     0.87080
C1215       C  0.85351651  0.64285684  0.39599934     0.87100
C1216       C  0.90455798  0.57360065  0.34668166     0.87270
O1217       O  0.85994303  0.18566363  0.40709781    -0.75040
O1218       O  0.82584613  0.13269606  0.36724350    -0.75070
O1219       O  0.86198187  0.13322601  0.40632205    -0.75120
O1220       O  0.82339380  0.18497194  0.36823808    -0.75170
O1221       O  0.85615631  0.18614599  0.33887335    -0.75100
O1222       O  0.89461246  0.13492548  0.37717890    -0.75080
O1223       O  0.85886794  0.13418118  0.33834669    -0.75060
O1224       O  0.89284630  0.18688806  0.37788609    -0.75120
Ni1225     Ni  0.84157916  0.15913222  0.38828437     1.25410
Ni1226     Ni  0.87677639  0.16069366  0.35706359     1.25360
C1227       C  0.88215346  0.19481678  0.39896386     0.87140
C1228       C  0.83720727  0.12414330  0.34666099     0.87080
C1229       C  0.88445128  0.12502366  0.39769401     0.87100
C1230       C  0.83333550  0.19380372  0.34718644     0.87270
O1231       O  0.01391193  0.31892654  0.77343510    -0.81500
O1232       O  0.98197006  0.23106808  0.70138184    -0.66190
O1233       O  0.98423186  0.27591608  0.75935259    -1.12790
C1234       C  0.05271200  0.21930246  0.78937876     1.05390
O1235       O  0.98252746  0.19680932  0.72716204    -0.79400
O1236       O  0.98688996  0.20242708  0.77858724    -0.66980
Ni1237     Ni  0.98080779  0.31215877  0.75575569     1.34870
C1238       C  0.98263753  0.21827890  0.79687147     0.84120
O1239       O  0.95479728  0.27375945  0.71235863    -0.79940
O1240       O  0.94749363  0.30849158  0.73738763    -0.90210
C1241       C  0.97430860  0.20840721  0.70684212     0.83700
O1242       O  0.99952498  0.31551260  0.72368746    -0.68410
O1243       O  0.04117383  0.20257477  0.77514828    -0.87700
C1244       C  0.01149027  0.29977641  0.70874129     0.84530
C1245       C  0.94256207  0.29482705  0.71742020     1.06100
H1246       H  0.02877499  0.24052949  0.73554931     0.37900
O1247       O  0.01294340  0.23769165  0.74586067    -1.10360
O1248       O  0.99287465  0.24072469  0.79803317    -0.67010
Ni1249     Ni  0.01546733  0.26032246  0.77474342     1.26350
O1250       O  0.00881163  0.27540340  0.71019566    -0.67240
O1251       O  0.04617601  0.24316694  0.78972506    -0.79530
C1252       C  0.02484087  0.30865205  0.79327047     0.83910
O1253       O  0.01870268  0.28611957  0.80083103    -0.66710
Ni1254     Ni  0.01185090  0.20158730  0.75089486     1.27450
Ni1255     Ni  0.98338776  0.25494642  0.72929517     1.26060
H1256       H  0.96895651  0.27096801  0.76960377     0.38450
C1257       C  0.01603163  0.20976397  0.04551461     0.02520
C1258       C  0.03041263  0.20075323  0.02403336    -0.13630
C1259       C  0.05338450  0.21345592  0.01539696     0.00020
C1260       C  0.06233282  0.23530470  0.02875171    -0.12160
C1261       C  0.04808787  0.24516227  0.05012372     0.02510
C1262       C  0.02438519  0.23258598  0.05795175    -0.11580
H1263       H  0.02395127  0.18336421  0.01425799     0.08110
H1264       H  0.08064037  0.24453989  0.02255591     0.05640
H1265       H  0.01289145  0.24005863  0.07408636     0.05480
O1266       O  0.13618222  0.33681031  0.15690686    -0.75040
O1267       O  0.09899350  0.39244934  0.12179519    -0.75070
O1268       O  0.09484896  0.34001534  0.12255118    -0.75120
O1269       O  0.14015539  0.38958784  0.15639138    -0.75170
O1270       O  0.16942895  0.38670027  0.12397054    -0.75100
O1271       O  0.12393718  0.33740357  0.08995094    -0.75080
O1272       O  0.12823408  0.38947409  0.08960125    -0.75060
O1273       O  0.16550515  0.33439723  0.12443983    -0.75120
Ni1274     Ni  0.11655960  0.36480723  0.14061939     1.25410
Ni1275     Ni  0.14778650  0.36189687  0.10585913     1.25360
C1276       C  0.15674544  0.32626002  0.14629233     0.87140
C1277       C  0.10756918  0.40018089  0.09964901     0.87080
C1278       C  0.10182133  0.33067591  0.10053908     0.87100
C1279       C  0.16206550  0.39659544  0.14563082     0.87270
C1280       C  0.03385704  0.04712059  0.23453927     0.02520
C1281       C  0.04301926  0.02263889  0.22679425    -0.13630
C1282       C  0.03509075  0.01192323  0.20279578     0.00020
C1283       C  0.01696510  0.02601443  0.18718454    -0.12160
C1284       C  0.00612436  0.04950918  0.19576737     0.02510
C1285       C  0.01509547  0.06022214  0.21910716    -0.11580
H1286       H  0.05720682  0.01252362  0.23915132     0.08110
H1287       H  0.01166221  0.01918955  0.16799921     0.05640
H1288       H  0.00805425  0.07917477  0.22485118     0.05480
C1289       C  0.23955684  0.20311514  0.20182212     0.02520
C1290       C  0.23082293  0.22679991  0.19080132    -0.13630
C1291       C  0.20685543  0.23879001  0.19897328     0.00020
C1292       C  0.19194443  0.22720867  0.21888215    -0.12160
C1293       C  0.19990641  0.20363857  0.22990101     0.02510
C1294       C  0.22358606  0.19179147  0.22117235    -0.11580
H1295       H  0.24217849  0.23563912  0.17535618     0.08110
H1296       H  0.17344431  0.23619702  0.22521819     0.05640
H1297       H  0.22915643  0.17323924  0.22913997     0.05480
O1298       O  0.11717927  0.16509103  0.32141883    -0.75040
O1299       O  0.07815547  0.12864079  0.37417702    -0.75070
O1300       O  0.11665510  0.16554192  0.37422537    -0.75120
O1301       O  0.07854049  0.12805125  0.32149001    -0.75170
O1302       O  0.11045492  0.09779542  0.32231549    -0.75100
O1303       O  0.14832018  0.13495970  0.37479799    -0.75080
O1304       O  0.10997571  0.09838161  0.37478635    -0.75060
O1305       O  0.14866184  0.13444753  0.32207085    -0.75120
Ni1306     Ni  0.09650022  0.14797134  0.34780460     1.25410
Ni1307     Ni  0.13046037  0.11536233  0.34854083     1.25360
C1308       C  0.13932929  0.15571026  0.31300225     0.87140
C1309       C  0.08763075  0.10736097  0.38312131     0.87080
C1310       C  0.13864860  0.15623396  0.38323504     0.87100
C1311       C  0.08837389  0.10671473  0.31318921     0.87270
C1312       C  0.23701086  0.04083995  0.05162373     0.02520
C1313       C  0.22562760  0.05287057  0.02959766    -0.13630
C1314       C  0.20156884  0.04386833  0.01862422     0.00020
C1315       C  0.18957324  0.02174565  0.02920824    -0.12160
C1316       C  0.20049775  0.00974407  0.05136474     0.02510
C1317       C  0.22389735  0.01962821  0.06263925    -0.11580
H1318       H  0.23504739  0.06981854  0.02148285     0.08110
H1319       H  0.17119944  0.01442934  0.02081283     0.05640
H1320       H  0.23155615  0.01107408  0.08041778     0.05480
O1321       O  0.33642199  0.10664200  0.10097047    -0.75040
O1322       O  0.38973614  0.13959019  0.14285640    -0.75070
O1323       O  0.39037314  0.10119219  0.10747252    -0.75120
O1324       O  0.33651863  0.14529081  0.13613413    -0.75170
O1325       O  0.32964888  0.11721126  0.16803444    -0.75100
O1326       O  0.38384563  0.07228775  0.13867385    -0.75080
O1327       O  0.38343153  0.11076689  0.17445815    -0.75060
O1328       O  0.32974916  0.07790781  0.13251614    -0.75120
Ni1329     Ni  0.36353202  0.12407932  0.12073071     1.25410
Ni1330     Ni  0.35638527  0.09345383  0.15454566     1.25360
C1331       C  0.32395998  0.08709131  0.11004008     0.87140
C1332       C  0.39506814  0.13080939  0.16557003     0.87080
C1333       C  0.39639429  0.07962745  0.11826516     0.87100
C1334       C  0.32426466  0.13888519  0.15688027     0.87270
O1335       O  0.13506665  0.16483727  0.92788587    -0.75040
O1336       O  0.16627874  0.12448960  0.87321727    -0.75070
O1337       O  0.13535061  0.16759304  0.87521309    -0.75120
O1338       O  0.16674319  0.12211489  0.92582581    -0.75170
O1339       O  0.13015307  0.09769771  0.92509072    -0.75100
O1340       O  0.09903658  0.14277561  0.87342984    -0.75080
O1341       O  0.13013824  0.09964053  0.87225382    -0.75060
O1342       O  0.09856482  0.14032987  0.92579040    -0.75120
Ni1343     Ni  0.15218229  0.14561397  0.90059126     1.25410
Ni1344     Ni  0.11321389  0.11920388  0.89909470     1.25360
C1345       C  0.11142907  0.15921125  0.93563430     0.87140
C1346       C  0.15330377  0.10540324  0.86363283     0.87080
C1347       C  0.11204378  0.16274065  0.86608910     0.87100
C1348       C  0.15368148  0.10253130  0.93390594     0.87270
O1349       O  0.11222782  0.91614629  0.16242459    -0.75040
O1350       O  0.15108912  0.86664302  0.12252476    -0.75070
O1351       O  0.15126315  0.91919176  0.12587142    -0.75120
O1352       O  0.11156505  0.86420777  0.15841257    -0.75170
O1353       O  0.08067838  0.86794179  0.12727135    -0.75100
O1354       O  0.12097310  0.92082509  0.09392220    -0.75080
O1355       O  0.12007622  0.86872638  0.09127650    -0.75060
O1356       O  0.08211161  0.92008178  0.13070659    -0.75120
Ni1357     Ni  0.13269521  0.89144389  0.14337519     1.25410
Ni1358     Ni  0.09986596  0.89446251  0.10968513     1.25360
C1359       C  0.09109513  0.92672543  0.15313914     0.87140
C1360       C  0.14182100  0.85913134  0.10062968     0.87080
C1361       C  0.14256207  0.92895039  0.10443728     0.87100
C1362       C  0.08900132  0.85766955  0.14844494     0.87270
O1363       O  0.91911646  0.12686914  0.14254199    -0.75040
O1364       O  0.86108179  0.15831383  0.10487055    -0.75070
O1365       O  0.86498556  0.12401675  0.14413893    -0.75120
O1366       O  0.91516889  0.16207505  0.10384402    -0.75170
O1367       O  0.91791339  0.12990617  0.07524770    -0.75100
O1368       O  0.86557562  0.09248652  0.11488754    -0.75080
O1369       O  0.86330649  0.12684357  0.07562311    -0.75060
O1370       O  0.91948434  0.09455974  0.11392266    -0.75120
Ni1371     Ni  0.89005527  0.14397728  0.12484150     1.25410
Ni1372     Ni  0.89162755  0.10985792  0.09380809     1.25360
C1373       C  0.92845056  0.10523583  0.13449518     0.87140
C1374       C  0.85234644  0.14747966  0.08416947     0.87080
C1375       C  0.85686422  0.10202549  0.13626398     0.87100
C1376       C  0.92525537  0.15220957  0.08332942     0.87270
C1377       C  0.30209948  0.07539146  0.09460417    -0.06730
C1378       C  0.30292042  0.04892525  0.08902965    -0.17860
C1379       C  0.28286954  0.03729648  0.07389618     0.10460
C1380       C  0.26077843  0.05222173  0.06489056    -0.06660
C1381       C  0.26025098  0.07870841  0.07038452    -0.17890
C1382       C  0.28044262  0.09030596  0.08506515     0.10500
S1383       S  0.28737103  0.00370897  0.06588046    -0.32860
S1384       S  0.27642139  0.12396333  0.09233304    -0.32860
H1385       H  0.28526936  0.12162331  0.11819745     0.28510
H1386       H  0.27408555  0.00507447  0.04176365     0.28500
H1387       H  0.31966937  0.03737114  0.09592631     0.19090
H1388       H  0.24333909  0.09037344  0.06409416     0.19100
C1389       C  0.15750548  0.94974687  0.09122532    -0.06730
C1390       C  0.16749461  0.94520776  0.06615465    -0.17860
C1391       C  0.18185767  0.96419159  0.05272109     0.10460
C1392       C  0.18618128  0.98843653  0.06446260    -0.06660
C1393       C  0.17594753  0.99301154  0.08935330    -0.17890
C1394       C  0.16125142  0.97426133  0.10252304     0.10500
S1395       S  0.19451781  0.95612992  0.02098390    -0.32860
S1396       S  0.14608903  0.98373461  0.13262350    -0.32860
H1397       H  0.12267340  0.96922450  0.12906298     0.28510
H1398       H  0.21723570  0.97196537  0.02221246     0.28500
H1399       H  0.16438995  0.92659767  0.05711512     0.19090
H1400       H  0.17861236  0.01177058  0.09822637     0.19100
C1401       C  0.18863263  0.05826288  0.99673002    -0.06730
C1402       C  0.20385504  0.06398051  0.97456785    -0.17860
C1403       C  0.19276962  0.07753040  0.95345086     0.10460
C1404       C  0.16573100  0.08580039  0.95428578    -0.06660
C1405       C  0.15037835  0.07978224  0.97620717    -0.17890
C1406       C  0.16159350  0.06672349  0.99755807     0.10500
S1407       S  0.21398807  0.08304119  0.92573950    -0.32860
S1408       S  0.14083081  0.06331278  0.02593007    -0.32860
H1409       H  0.16169865  0.06672685  0.04402334     0.28510
H1410       H  0.19342369  0.08110068  0.90708741     0.28500
H1411       H  0.22452712  0.05757810  0.97357298     0.19090
H1412       H  0.12982830  0.08654302  0.97730928     0.19100
C1413       C  0.18323558  0.19132145  0.25042639    -0.06730
C1414       C  0.17439005  0.20632029  0.27153719    -0.17860
C1415       C  0.15938501  0.19551753  0.29177190     0.10460
C1416       C  0.15405163  0.16880818  0.29180639    -0.06660
C1417       C  0.16337029  0.15380009  0.27103634    -0.17890
C1418       C  0.17656800  0.16483222  0.24989602     0.10500
S1419       S  0.14947852  0.21624697  0.31805363    -0.32860
S1420       S  0.18259032  0.14423627  0.22227758    -0.32860
H1421       H  0.17924023  0.16380382  0.20356613     0.28510
H1422       H  0.12198241  0.21289566  0.31318609     0.28500
H1423       H  0.17938334  0.22660042  0.27241258     0.19090
H1424       H  0.15969499  0.13330643  0.27082526     0.19100
C1425       C  0.30390834  0.15692212  0.16824484    -0.06730
C1426       C  0.29937523  0.15642622  0.19516265    -0.17860
C1427       C  0.28067803  0.17303214  0.20694004     0.10460
C1428       C  0.26354088  0.18875715  0.19132861    -0.06660
C1429       C  0.26853218  0.18951817  0.16447286    -0.17890
C1430       C  0.28921747  0.17510692  0.15315451     0.10500
S1431       S  0.28164425  0.17462225  0.24194814    -0.32860
S1432       S  0.29563145  0.18131761  0.11936876    -0.32860
H1433       H  0.32162116  0.19050457  0.12434217     0.28510
H1434       H  0.27362270  0.20063051  0.24334457     0.28500
H1435       H  0.31146869  0.14387157  0.20737558     0.19090
H1436       H  0.25621983  0.20143643  0.15188030     0.19100
C1437       C  0.07423840  0.09192104  0.29281580    -0.06730
C1438       C  0.04640642  0.08856002  0.29446325    -0.17860
C1439       C  0.03268885  0.07301075  0.27657616     0.10460
C1440       C  0.04703249  0.06080486  0.25631847    -0.06660
C1441       C  0.07479636  0.06423662  0.25477543    -0.17890
C1442       C  0.08836720  0.07983413  0.27242668     0.10500
S1443       S  0.99716164  0.06894426  0.28110755    -0.32860
S1444       S  0.12330751  0.08547922  0.26648412    -0.32860
H1445       H  0.12086297  0.11184861  0.27217903     0.28510
H1446       H  0.99571933  0.04443221  0.26957389     0.28500
H1447       H  0.03539483  0.09753253  0.31016971     0.19090
H1448       H  0.08585532  0.05572495  0.23882986     0.19100
C1449       C  0.94905497  0.09153181  0.14952271    -0.06730
C1450       C  0.94341747  0.06629774  0.15744475    -0.17860
C1451       C  0.96137191  0.05240071  0.17295287     0.10460
C1452       C  0.98612120  0.06355272  0.17988718    -0.06660
C1453       C  0.99189986  0.08874931  0.17165165    -0.17890
C1454       C  0.97367021  0.10282365  0.15645977     0.10500
S1455       S  0.95075507  0.02122356  0.18436808    -0.32860
S1456       S  0.98334208  0.13457111  0.14582991    -0.32860
H1457       H  0.96921609  0.13401087  0.12218273     0.28510
H1458       H  0.96387875  0.02256738  0.20854873     0.28500
H1459       H  0.92437559  0.05769661  0.15230602     0.19090
H1460       H  0.01092439  0.09735270  0.17678204     0.19100
C1461       C  0.04813215  0.98780546  0.19274678    -0.06730
C1462       C  0.07556342  0.98375294  0.19769174    -0.17860
C1463       C  0.08975343  0.96320996  0.18666301     0.10460
C1464       C  0.07687894  0.94703085  0.16825611    -0.06660
C1465       C  0.04922454  0.95034589  0.16414343    -0.17890
C1466       C  0.03459445  0.96952627  0.17708134     0.10500
S1467       S  0.12374033  0.95896219  0.19816654    -0.32860
S1468       S  0.99863269  0.96808453  0.17427771    -0.32860
H1469       H  0.99374284  0.97809666  0.19920637     0.28510
H1470       H  0.13546161  0.95360603  0.17421338     0.28500
H1471       H  0.08651481  0.99703835  0.20989020     0.19090
H1472       H  0.03862850  0.93720662  0.15144215     0.19100
C1473       C  0.19530261  0.26175148  0.18513580    -0.06730
C1474       C  0.16858018  0.26024656  0.17658549    -0.17860
C1475       C  0.15597461  0.28075642  0.16370243     0.10460
C1476       C  0.17000761  0.30379077  0.15900720    -0.06660
C1477       C  0.19696417  0.30529539  0.16683913    -0.17890
C1478       C  0.20961033  0.28478059  0.18018967     0.10500
S1479       S  0.12218110  0.27591613  0.15270702    -0.32860
S1480       S  0.24336544  0.28986537  0.19154205    -0.32860
H1481       H  0.24086373  0.27497407  0.21423988     0.28510
H1482       H  0.12635802  0.28798555  0.12861045     0.28500
H1483       H  0.15742228  0.24264477  0.17961099     0.19090
H1484       H  0.20795218  0.32290800  0.16334800     0.19100
C1485       C  0.05879997  0.26832641  0.06397142    -0.06730
C1486       C  0.06786231  0.28930625  0.04904125    -0.17860
C1487       C  0.08078019  0.31041436  0.06045177     0.10460
C1488       C  0.08462976  0.31109940  0.08764491    -0.06660
C1489       C  0.07361020  0.29129247  0.10277409    -0.17890
C1490       C  0.06181416  0.26956508  0.09133995     0.10500
S1491       S  0.09129532  0.33613499  0.03927395    -0.32860
S1492       S  0.05374946  0.24320256  0.11273965    -0.32860
H1493       H  0.06288143  0.22380649  0.09581919     0.28510
H1494       H  0.08701220  0.35600542  0.05739464     0.28500
H1495       H  0.06517145  0.28912250  0.02814269     0.19090
H1496       H  0.07581642  0.29185854  0.12367854     0.19100
C1497       C  0.06893734  0.20263094  0.99345049    -0.06730
C1498       C  0.09625473  0.19693200  0.99720631    -0.17860
C1499       C  0.11087177  0.18311057  0.97862413     0.10460
C1500       C  0.09798802  0.17487610  0.95564514    -0.06660
C1501       C  0.07094846  0.18127357  0.95159544    -0.17890
C1502       C  0.05653727  0.19554581  0.96980482     0.10500
S1503       S  0.14514349  0.17492618  0.98630505    -0.32860
S1504       S  0.02262538  0.20455153  0.96133931    -0.32860
H1505       H  0.02229680  0.22750477  0.97584908     0.28510
H1506       H  0.14398092  0.14980421  0.97610954     0.28500
H1507       H  0.10593509  0.20211412  0.01532590     0.19090
H1508       H  0.06098708  0.17535483  0.93385268     0.19100
C1509       C  0.99267281  0.19469453  0.05494354    -0.06730
C1510       C  0.96756392  0.20686017  0.05700447    -0.17860
C1511       C  0.94474100  0.19305322  0.06444777     0.10460
C1512       C  0.94687630  0.16642470  0.07009575    -0.06660
C1513       C  0.97172160  0.15408959  0.06724498    -0.17890
C1514       C  0.99463884  0.16792433  0.06039667     0.10500
S1515       S  0.91331984  0.21033398  0.06592077    -0.32860
S1516       S  0.02606221  0.15053971  0.06090705    -0.32860
H1517       H  0.04154086  0.17145990  0.06948357     0.28510
H1518       H  0.89705816  0.18897667  0.06031075     0.28500
H1519       H  0.96563796  0.22718564  0.05241848     0.19090
H1520       H  0.97369011  0.13382559  0.07212784     0.19100
C1521       C  0.07296027  0.20942878  0.80804530    -0.06730
C1522       C  0.06917395  0.21486770  0.83449276    -0.17860
C1523       C  0.08254661  0.20065509  0.85382714     0.10460
C1524       C  0.10002735  0.18037887  0.84669821    -0.06660
C1525       C  0.10514092  0.17600116  0.82031721    -0.17890
C1526       C  0.09199500  0.19040718  0.80097333     0.10500
S1527       S  0.07509517  0.20823251  0.88717449    -0.32860
S1528       S  0.09985358  0.18325521  0.76758903    -0.32860
H1529       H  0.09314136  0.20785284  0.75790479     0.28510
H1530       H  0.10038274  0.20136427  0.89714147     0.28500
H1531       H  0.05442053  0.22917441  0.84020089     0.19090
H1532       H  0.11896326  0.16081407  0.81473292     0.19100
C1533       C  0.89808515  0.33651849  0.65951413    -0.06730
C1534       C  0.88515587  0.32925419  0.68260866    -0.17860
C1535       C  0.89846559  0.31443762  0.70164385     0.10460
C1536       C  0.92497769  0.30601845  0.69716926    -0.06660
C1537       C  0.93732550  0.31228312  0.67359008    -0.17890
C1538       C  0.92446457  0.32761676  0.65495731     0.10500
S1539       S  0.88081778  0.30720737  0.73121159    -0.32860
S1540       S  0.94340672  0.33557699  0.62627888    -0.32860
H1541       H  0.92150285  0.33817308  0.60940581     0.28510
H1542       H  0.89560449  0.28487964  0.73750419     0.28500
H1543       H  0.86488929  0.33589162  0.68622216     0.19090
H1544       H  0.95782150  0.30619131  0.67016537     0.19100
C1545       C  0.92640186  0.32245022  0.50701478    -0.06730
C1546       C  0.91382960  0.30706365  0.52592572    -0.17860
C1547       C  0.90011954  0.31792426  0.54701772     0.10460
C1548       C  0.89935782  0.34501567  0.54995902    -0.06660
C1549       C  0.91269818  0.36032094  0.53159353    -0.17890
C1550       C  0.92506434  0.34957154  0.50976047     0.10500
S1551       S  0.88476774  0.29592963  0.56960143    -0.32860
S1552       S  0.93649603  0.37178531  0.48525019    -0.32860
H1553       H  0.92890631  0.35632440  0.46405973     0.28510
H1554       H  0.88950784  0.31065475  0.59197004     0.28500
H1555       H  0.91475800  0.28625047  0.52434508     0.19090
H1556       H  0.91254476  0.38107480  0.53358927     0.19100
C1557       C  0.92339852  0.25624933  0.43690765    -0.06730
C1558       C  0.93482851  0.23148362  0.43638374    -0.17860
C1559       C  0.92121992  0.21082237  0.42509451     0.10460
C1560       C  0.89575252  0.21501083  0.41382252    -0.06660
C1561       C  0.88418386  0.23965991  0.41450186    -0.17890
C1562       C  0.89787269  0.26039716  0.42556572     0.10500
S1563       S  0.93709885  0.17949590  0.42602663    -0.32860
S1564       S  0.88227842  0.29181251  0.42344108    -0.32860
H1565       H  0.90625596  0.30576642  0.42156956     0.28510
H1566       H  0.91322415  0.16538102  0.42778351     0.28500
H1567       H  0.95427422  0.22814677  0.44525729     0.19090
H1568       H  0.86485559  0.24298698  0.40537291     0.19100
C1569       C  0.00101123  0.31593741  0.44119178    -0.06730
C1570       C  0.99895228  0.34040293  0.42976846    -0.17860
C1571       C  0.01983054  0.35054456  0.41499059     0.10460
C1572       C  0.04378737  0.33625080  0.41169320    -0.06660
C1573       C  0.04598272  0.31173826  0.42314180    -0.17890
C1574       C  0.02495780  0.30154345  0.43801829     0.10500
S1575       S  0.01426370  0.38150615  0.39993502    -0.32860
S1576       S  0.03016242  0.27051981  0.45312219    -0.32860
H1577       H  0.01274192  0.27468368  0.47411421     0.28510
H1578       H  0.02803583  0.37514795  0.37713814     0.28500
H1579       H  0.98049027  0.35135097  0.43161862     0.19090
H1580       H  0.06445379  0.30084776  0.42118937     0.19100
C1581       C  0.94448012  0.51305105  0.30459031    -0.06730
C1582       C  0.91687677  0.51163167  0.30928648    -0.17860
C1583       C  0.90352828  0.53078686  0.32336838     0.10460
C1584       C  0.91795590  0.55219680  0.33291880    -0.06660
C1585       C  0.94554713  0.55366641  0.32826210    -0.17890
C1586       C  0.95883026  0.53465601  0.31382435     0.10500
S1587       S  0.86833157  0.52604981  0.32941022    -0.32860
S1588       S  0.99372495  0.53982216  0.30681285    -0.32860
H1589       H  0.99367196  0.52677884  0.28288552     0.28510
H1590       H  0.86853043  0.53676145  0.35442912     0.28500
H1591       H  0.90575113  0.49500615  0.30262400     0.19090
H1592       H  0.95665595  0.57021787  0.33513112     0.19100
C1593       C  0.94634806  0.44694810  0.23364002    -0.06730
C1594       C  0.91854315  0.44332172  0.23444333    -0.17860
C1595       C  0.90519874  0.42910154  0.21543235     0.10460
C1596       C  0.91986895  0.41782071  0.19483941    -0.06660
C1597       C  0.94764436  0.42158356  0.19375705    -0.17890
C1598       C  0.96091194  0.43649913  0.21249793     0.10500
S1599       S  0.86950081  0.42552719  0.21940405    -0.32860
S1600       S  0.99605045  0.44255556  0.20748776    -0.32860
H1601       H  0.99623477  0.46663002  0.22002407     0.28510
H1602       H  0.86814057  0.40035495  0.20969903     0.28500
H1603       H  0.90711352  0.45084997  0.25062861     0.19090
H1604       H  0.95892783  0.41366185  0.17766533     0.19100
C1605       C  0.01183377  0.44104455  0.30710484    -0.06730
C1606       C  0.00983238  0.41403817  0.30824941    -0.17860
C1607       C  0.02900451  0.39904509  0.32119067     0.10460
C1608       C  0.05001619  0.41119381  0.33485909    -0.06660
C1609       C  0.05173397  0.43816087  0.33428080    -0.17890
C1610       C  0.03367719  0.45307254  0.31976041     0.10500
S1611       S  0.02471183  0.36461889  0.32062052    -0.32860
S1612       S  0.04092697  0.48695339  0.31690782    -0.32860
H1613       H  0.03136838  0.48931221  0.29126640     0.28510
H1614       H  0.04728757  0.36075994  0.30478092     0.28500
H1615       H  0.99311321  0.40441251  0.29903422     0.19090
H1616       H  0.06792323  0.44770319  0.34440754     0.19100
C1617       C  0.82511636  0.42609651  0.55187422    -0.06730
C1618       C  0.79719476  0.42982601  0.55143081    -0.17860
C1619       C  0.78457060  0.44400374  0.53147644     0.10460
C1620       C  0.80002173  0.45400799  0.51077270    -0.06660
C1621       C  0.82794161  0.45045748  0.51154097    -0.17890
C1622       C  0.84050699  0.43672701  0.53157325     0.10500
S1623       S  0.74899898  0.44947797  0.53429151    -0.32860
S1624       S  0.87603253  0.43151053  0.52873766    -0.32860
H1625       H  0.87407024  0.40527161  0.53509630     0.28510
H1626       H  0.74884024  0.47333556  0.52127336     0.28500
H1627       H  0.78516177  0.42207080  0.56703811     0.19090
H1628       H  0.84012276  0.45742830  0.49566713     0.19100
C1629       C  0.80829732  0.51882795  0.43921736    -0.06730
C1630       C  0.83630405  0.51670171  0.43814398    -0.17860
C1631       C  0.85158640  0.53400652  0.42367325     0.10460
C1632       C  0.83871667  0.55426251  0.40989861    -0.06660
C1633       C  0.81074597  0.55667253  0.41130880    -0.17890
C1634       C  0.79549852  0.53956546  0.42613053     0.10500
S1635       S  0.88723502  0.52820227  0.42269184    -0.32860
S1636       S  0.76000025  0.54591700  0.42832013    -0.32860
H1637       H  0.75685734  0.53518972  0.45322158     0.28510
H1638       H  0.89025904  0.53496860  0.39643311     0.28500
H1639       H  0.84633350  0.50072370  0.44777795     0.19090
H1640       H  0.80073542  0.57252557  0.40144880     0.19100
C1641       C  0.69706708  0.42943565  0.40175745    -0.06730
C1642       C  0.71620068  0.41359356  0.41412712    -0.17860
C1643       C  0.73723447  0.42393597  0.42872549     0.10460
C1644       C  0.73856811  0.45089835  0.43256368    -0.06660
C1645       C  0.71914548  0.46673131  0.42056424    -0.17890
C1646       C  0.69866626  0.45646279  0.40518062     0.10500
S1647       S  0.76263151  0.40167897  0.44003332    -0.32860
S1648       S  0.67506977  0.47907811  0.39121268    -0.32860
H1649       H  0.65236847  0.46406333  0.39633871     0.28510
H1650       H  0.78416629  0.41859725  0.43620391     0.28500
H1651       H  0.71550475  0.39289167  0.41147779     0.19090
H1652       H  0.71977919  0.48742484  0.42338723     0.19100
C1653       C  0.79540434  0.25443869  0.30408748    -0.06730
C1654       C  0.80148557  0.23095095  0.29186753    -0.17860
C1655       C  0.81297010  0.21048142  0.30569597     0.10460
C1656       C  0.81848378  0.21342041  0.33240788    -0.06660
C1657       C  0.81156320  0.23644357  0.34492487    -0.17890
C1658       C  0.80071175  0.25719507  0.33100243     0.10500
S1659       S  0.81989230  0.18105207  0.28826865    -0.32860
S1660       S  0.79637484  0.28711867  0.34836512    -0.32860
H1661       H  0.80453131  0.30300110  0.32772746     0.28510
H1662       H  0.81508745  0.16446946  0.30935157     0.28500
H1663       H  0.79734234  0.22857912  0.27132681     0.19090
H1664       H  0.81616505  0.23881536  0.36538479     0.19100
C1665       C  0.73399982  0.32953916  0.29221189    -0.06730
C1666       C  0.74006531  0.34143460  0.31585809    -0.17860
C1667       C  0.72262915  0.35933925  0.32669421     0.10460
C1668       C  0.69824789  0.36509138  0.31402388    -0.06660
C1669       C  0.69265872  0.35427989  0.28970396    -0.17890
C1670       C  0.71039011  0.33649378  0.27857727     0.10500
S1671       S  0.73215715  0.37381170  0.35714678    -0.32860
S1672       S  0.70113741  0.32248290  0.24778548    -0.32860
H1673       H  0.71478646  0.29895037  0.25133659     0.28510
H1674       H  0.71875004  0.39728759  0.35241882     0.28500
H1675       H  0.75867517  0.33688209  0.32584169     0.19090
H1676       H  0.67368076  0.35837423  0.28020686     0.19100
C1677       C  0.83881189  0.34343855  0.19537132    -0.06730
C1678       C  0.81171723  0.33897868  0.19001808    -0.17860
C1679       C  0.79606385  0.32459992  0.20696582     0.10460
C1680       C  0.80739913  0.31556896  0.23049227    -0.06660
C1681       C  0.83470674  0.31951393  0.23551740    -0.17890
C1682       C  0.85061084  0.33316610  0.21815958     0.10500
S1683       S  0.76210552  0.31780537  0.19707094    -0.32860
S1684       S  0.88540410  0.33732516  0.22688142    -0.32860
H1685       H  0.88929844  0.36077454  0.21391565     0.28510
H1686       H  0.75995324  0.29459239  0.21104912     0.28500
H1687       H  0.80292317  0.34597983  0.17202578     0.19090
H1688       H  0.84349842  0.31285673  0.25363075     0.19100
C1689       C  0.02906355  0.31128960  0.68896651    -0.06730
C1690       C  0.01867982  0.33197813  0.67440331    -0.17860
C1691       C  0.03542886  0.34835455  0.66042826     0.10460
C1692       C  0.06339748  0.34396190  0.66072831    -0.06660
C1693       C  0.07368215  0.32250941  0.67425733    -0.17890
C1694       C  0.05679154  0.30594727  0.68802804     0.10500
S1695       S  0.02002474  0.37590345  0.64487393    -0.32860
S1696       S  0.07195787  0.27978741  0.70589472    -0.32860
H1697       H  0.05438223  0.26120972  0.69580418     0.28510
H1698       H  0.03944642  0.39352487  0.65344454     0.28500
H1699       H  0.99745639  0.33641635  0.67527297     0.19090
H1700       H  0.09507501  0.31883503  0.67439885     0.19100
C1701       C  0.97817302  0.56856960  0.68363475    -0.06730
C1702       C  0.95635317  0.57538285  0.69943711    -0.17860
C1703       C  0.93536444  0.59082762  0.68992922     0.10460
C1704       C  0.93623396  0.59990240  0.66408627    -0.06660
C1705       C  0.95750509  0.59236807  0.64804271    -0.17890
C1706       C  0.97869296  0.57734708  0.65762320     0.10500
S1707       S  0.90788196  0.59785161  0.71147989    -0.32860
S1708       S  0.00668346  0.57187349  0.63624042    -0.32860
H1709       H  0.02650778  0.57509417  0.65544343     0.28510
H1710       H  0.88803919  0.59871594  0.69200778     0.28500
H1711       H  0.95579121  0.56876274  0.71940578     0.19090
H1712       H  0.95835306  0.59942868  0.62822950     0.19100
C1713       C  0.04613158  0.49649144  0.68228450    -0.06730
C1714       C  0.05006062  0.49586814  0.65528118    -0.17860
C1715       C  0.06306337  0.47504733  0.64324932     0.10460
C1716       C  0.07210354  0.45384875  0.65838058    -0.06660
C1717       C  0.06754470  0.45422499  0.68530186    -0.17890
C1718       C  0.05440378  0.47496678  0.69729066     0.10500
S1719       S  0.06906035  0.47771497  0.60884970    -0.32860
S1720       S  0.04813529  0.47236121  0.73168267    -0.32860
H1721       H  0.02420162  0.48680545  0.73137184     0.28510
H1722       H  0.09555535  0.46843199  0.61016495     0.28500
H1723       H  0.04401613  0.51230127  0.64356571     0.19090
H1724       H  0.07394631  0.43799386  0.69712465     0.19100
C1725       C  0.05444707  0.56984091  0.74574653    -0.06730
C1726       C  0.06448341  0.55572740  0.76700530    -0.17860
C1727       C  0.07747743  0.56791375  0.78775933     0.10460
C1728       C  0.08033158  0.59506712  0.78761279    -0.06660
C1729       C  0.06999706  0.60918674  0.76656402    -0.17890
C1730       C  0.05809481  0.59692943  0.74531810     0.10500
S1731       S  0.08909407  0.54760302  0.81403395    -0.32860
S1732       S  0.04997816  0.61691527  0.71759970    -0.32860
H1733       H  0.05549391  0.59786029  0.69892212     0.28510
H1734       H  0.08485331  0.56567189  0.83387126     0.28500
H1735       H  0.06170008  0.53503373  0.76773283     0.19090
H1736       H  0.07238657  0.62991538  0.76602445     0.19100
C1737       C  0.25985609  0.55885581  0.57236786    -0.06730
C1738       C  0.25890739  0.56415409  0.59907159    -0.17860
C1739       C  0.27879384  0.57873917  0.61124500     0.10460
C1740       C  0.30058779  0.58812747  0.59659875    -0.06660
C1741       C  0.30163514  0.58283512  0.56991179    -0.17890
C1742       C  0.28184335  0.56798866  0.55775531     0.10500
S1743       S  0.27436766  0.58585590  0.64524840    -0.32860
S1744       S  0.28653626  0.56041368  0.52387960    -0.32860
H1745       H  0.27385908  0.53629585  0.52486238     0.28510
H1746       H  0.28409526  0.61118602  0.64356721     0.28500
H1747       H  0.24198051  0.55767019  0.61040309     0.19090
H1748       H  0.31850195  0.58953338  0.55862682     0.19100
C1749       C  0.16154911  0.44821837  0.59625434    -0.06730
C1750       C  0.16843809  0.44673385  0.56989393    -0.17860
C1751       C  0.18369130  0.46597092  0.55801069     0.10460
C1752       C  0.19168576  0.48778493  0.57252897    -0.06660
C1753       C  0.18541840  0.48890458  0.59906382    -0.17890
C1754       C  0.17030738  0.46960435  0.61098176     0.10500
S1755       S  0.19269897  0.46123235  0.52443540    -0.32860
S1756       S  0.16115616  0.47455640  0.64445971    -0.32860
H1757       H  0.13460746  0.46622569  0.64134423     0.28510
H1758       H  0.21668897  0.47525699  0.52564146     0.28500
H1759       H  0.16213819  0.43027257  0.55850717     0.19090
H1760       H  0.19107291  0.50567987  0.61030373     0.19100
C1761       C  0.26205324  0.69748483  0.68800700    -0.06730
C1762       C  0.28339830  0.68958570  0.70410092    -0.17860
C1763       C  0.30423524  0.67432172  0.69449371     0.10460
C1764       C  0.30374937  0.66663116  0.66828492    -0.06660
C1765       C  0.28231068  0.67432289  0.65228261    -0.17890
C1766       C  0.26125660  0.68918819  0.66192367     0.10500
S1767       S  0.33163193  0.66674387  0.71597066    -0.32860
S1768       S  0.23342793  0.69559816  0.64036050    -0.32860
H1769       H  0.21367022  0.69265476  0.65949862     0.28510
H1770       H  0.35100186  0.67328594  0.69737622     0.28500
H1771       H  0.28401032  0.69570749  0.72422049     0.19090
H1772       H  0.28166708  0.66816511  0.63216875     0.19100
C1773       C  0.16267819  0.67059412  0.78744109    -0.06730
C1774       C  0.18932969  0.67715229  0.79251368    -0.17860
C1775       C  0.20322435  0.69335161  0.77570016     0.10460
C1776       C  0.19039104  0.70256641  0.75294441    -0.06660
C1777       C  0.16362647  0.69614886  0.74806330    -0.17890
C1778       C  0.14971169  0.68016162  0.76497586     0.10500
S1779       S  0.23695009  0.70206836  0.78467011    -0.32860
S1780       S  0.11596366  0.67152201  0.75617829    -0.32860
H1781       H  0.11803273  0.64624792  0.76592168     0.28510
H1782       H  0.23682783  0.72598909  0.77176590     0.28500
H1783       H  0.19904195  0.67038260  0.81014709     0.19090
H1784       H  0.15389756  0.70263292  0.73032878     0.19100
C1785       C  0.19613592  0.77052346  0.68501642    -0.06730
C1786       C  0.20966419  0.79414252  0.68409516    -0.17860
C1787       C  0.19785537  0.81583750  0.67233665     0.10460
C1788       C  0.17210176  0.81378443  0.66111682    -0.06660
C1789       C  0.15882436  0.79011290  0.66184792    -0.17890
C1790       C  0.17056964  0.76846921  0.67339297     0.10500
S1791       S  0.21645652  0.84554224  0.67240724    -0.32860
S1792       S  0.15224043  0.73860838  0.67176912    -0.32860
H1793       H  0.17481002  0.72236840  0.67031020     0.28510
H1794       H  0.19405310  0.86209015  0.67239305     0.28500
H1795       H  0.22929890  0.79578040  0.69297248     0.19090
H1796       H  0.13963550  0.78806778  0.65238541     0.19100
C1797       C  0.15611519  0.58260026  0.46741213    -0.06730
C1798       C  0.17461313  0.56313934  0.46126175    -0.17860
C1799       C  0.18957590  0.55078816  0.48076406     0.10460
C1800       C  0.18593733  0.55814267  0.50692159    -0.06660
C1801       C  0.16732837  0.57748039  0.51302933    -0.17890
C1802       C  0.15219638  0.58958066  0.49360563     0.10500
S1803       S  0.21284357  0.52589274  0.47102548    -0.32860
S1804       S  0.12860238  0.61405993  0.50345459    -0.32860
H1805       H  0.10935478  0.60853047  0.48432307     0.28510
H1806       H  0.23087412  0.52859885  0.49184431     0.28500
H1807       H  0.17773213  0.55786219  0.44112742     0.19090
H1808       H  0.16437193  0.58296530  0.53313168     0.19100
C1809       C  0.08411143  0.66665301  0.46572023    -0.06730
C1810       C  0.09961627  0.67506804  0.48681634    -0.17860
C1811       C  0.08813995  0.68880206  0.50737706     0.10460
C1812       C  0.06069241  0.69573354  0.50627496    -0.06660
C1813       C  0.04526894  0.68758569  0.48493771    -0.17890
C1814       C  0.05662384  0.67323627  0.46472271     0.10500
S1815       S  0.10926909  0.69529777  0.53509060    -0.32860
S1816       S  0.03529056  0.66508286  0.43762733    -0.32860
H1817       H  0.05511241  0.66839212  0.41859175     0.28510
H1818       H  0.08882888  0.69302347  0.55365819     0.28500
H1819       H  0.12067167  0.66996127  0.48783013     0.19090
H1820       H  0.02428679  0.69295511  0.48371546     0.19100
C1821       C  0.98781911  0.70753274  0.57132247    -0.06730
C1822       C  0.96494909  0.70090299  0.55690422    -0.17860
C1823       C  0.94237399  0.69040578  0.56894376     0.10460
C1824       C  0.94274478  0.68574122  0.59603569    -0.06660
C1825       C  0.96537804  0.69294627  0.61050687    -0.17890
C1826       C  0.98795085  0.70338227  0.59849161     0.10500
S1827       S  0.91339775  0.68448085  0.54884022    -0.32860
S1828       S  0.01676321  0.70951602  0.61878735    -0.32860
H1829       H  0.03593238  0.70233826  0.60017000     0.28510
H1830       H  0.89462909  0.69194805  0.56775814     0.28500
H1831       H  0.96455005  0.70428884  0.53612294     0.19090
H1832       H  0.96597560  0.68936470  0.63125184     0.19100
C1833       C  0.06003306  0.77398294  0.56413523    -0.06730
C1834       C  0.06122473  0.77696180  0.59124488    -0.17860
C1835       C  0.07587830  0.79675024  0.60288806     0.10460
C1836       C  0.09072249  0.81397971  0.58721082    -0.06660
C1837       C  0.08915817  0.81140489  0.56007503    -0.17890
C1838       C  0.07338372  0.79228369  0.54841160     0.10500
S1839       S  0.07501529  0.79800205  0.63790217    -0.32860
S1840       S  0.06991511  0.79345181  0.51353350    -0.32860
H1841       H  0.04388875  0.78323609  0.51291665     0.28510
H1842       H  0.10128411  0.80651681  0.64121781     0.28500
H1843       H  0.05130307  0.76318967  0.60371732     0.19090
H1844       H  0.09960558  0.82499440  0.54779296     0.19100
C1845       C  0.95396351  0.19546036  0.69049911    -0.06730
C1846       C  0.95229057  0.20129639  0.66389867    -0.17860
C1847       C  0.93392183  0.18874085  0.64767416     0.10460
C1848       C  0.91624470  0.17032846  0.65833362    -0.06660
C1849       C  0.91789506  0.16464770  0.68487814    -0.17890
C1850       C  0.93603707  0.17710471  0.70104968     0.10500
S1851       S  0.93516054  0.19610341  0.61349018    -0.32860
S1852       S  0.93361610  0.16966897  0.73520450    -0.32860
H1853       H  0.93484964  0.19565121  0.74271868     0.28510
H1854       H  0.93247140  0.17029557  0.60552486     0.28500
H1855       H  0.96589294  0.21518969  0.65552291     0.19090
H1856       H  0.90419153  0.15093653  0.69343105     0.19100
C1857       C  0.69629766  0.25833042  0.69635361    -0.06730
C1858       C  0.66905283  0.25530738  0.69038310    -0.17860
C1859       C  0.65556315  0.27298058  0.67452539     0.10460
C1860       C  0.66938448  0.29453173  0.66471806    -0.06660
C1861       C  0.69652018  0.29780163  0.67099186    -0.17890
C1862       C  0.71003209  0.28014209  0.68693131     0.10500
S1863       S  0.62143519  0.26584131  0.66579971    -0.32860
S1864       S  0.74452151  0.28681376  0.69492775    -0.32860
H1865       H  0.74445445  0.27414324  0.71909905     0.28510
H1866       H  0.62453638  0.27360059  0.63982770     0.28500
H1867       H  0.65854002  0.23831663  0.69701858     0.19090
H1868       H  0.70712981  0.31453472  0.66386041     0.19100
C1869       C  0.69623781  0.18977497  0.76375663    -0.06730
C1870       C  0.66888844  0.18508161  0.75978109    -0.17860
C1871       C  0.65449293  0.16943584  0.77663062     0.10460
C1872       C  0.66773857  0.15796490  0.79805477    -0.06660
C1873       C  0.69498086  0.16295599  0.80238938    -0.17890
C1874       C  0.70931203  0.17909717  0.78566323     0.10500
S1875       S  0.61954984  0.16449779  0.76901966    -0.32860
S1876       S  0.74369993  0.18701014  0.79312021    -0.32860
H1877       H  0.74585613  0.17228332  0.81601128     0.28510
H1878       H  0.61776444  0.13948072  0.77916512     0.28500
H1879       H  0.65880027  0.19296123  0.74282342     0.19090
H1880       H  0.70477597  0.15474023  0.81932029     0.19100
C1881       C  0.76384862  0.18804450  0.69334393    -0.06730
C1882       C  0.78649224  0.20210583  0.68601877    -0.17860
C1883       C  0.80693517  0.19068940  0.67164753     0.10460
C1884       C  0.80470742  0.16462247  0.66420436    -0.06660
C1885       C  0.78259415  0.15023573  0.67222283    -0.17890
C1886       C  0.76185529  0.16176039  0.68624040     0.10500
S1887       S  0.83562621  0.21019334  0.66398042    -0.32860
S1888       S  0.73273990  0.14235502  0.69262582    -0.32860
H1889       H  0.71405012  0.16248019  0.68916018     0.28510
H1890       H  0.85438328  0.19005405  0.66687439     0.28500
H1891       H  0.78829802  0.22215372  0.69165546     0.19090
H1892       H  0.78078466  0.13026843  0.66631049     0.19100
C1893       C  0.49582750  0.19307994  0.54879675    -0.06730
C1894       C  0.46967187  0.19906405  0.54053812    -0.17860
C1895       C  0.44736166  0.19164779  0.55531353     0.10460
C1896       C  0.45131020  0.17844431  0.57910268    -0.06660
C1897       C  0.47742550  0.17227529  0.58701098    -0.17890
C1898       C  0.49956865  0.17908276  0.57210067     0.10500
S1899       S  0.41448870  0.19943990  0.54277932    -0.32860
S1900       S  0.53205941  0.16887906  0.58384421    -0.32860
H1901       H  0.54449005  0.16716349  0.55949514     0.28510
H1902       H  0.40131249  0.19976740  0.56683856     0.28500
H1903       H  0.46665342  0.20994174  0.52276655     0.19090
H1904       H  0.48067587  0.16096352  0.60435378     0.19100
C1905       C  0.59433455  0.16853207  0.43660656    -0.06730
C1906       C  0.60887148  0.17177465  0.45970910    -0.17860
C1907       C  0.59648994  0.18073270  0.48236119     0.10460
C1908       C  0.56906729  0.18802155  0.48177029    -0.06660
C1909       C  0.55447722  0.18446410  0.45864555    -0.17890
C1910       C  0.56674807  0.17477319  0.43617876     0.10500
S1911       S  0.61647486  0.18080092  0.51166578    -0.32860
S1912       S  0.54634763  0.17160322  0.40736690    -0.32860
H1913       H  0.56693097  0.17672591  0.38956144     0.28510
H1914       H  0.59510235  0.17562383  0.52857177     0.28500
H1915       H  0.62982422  0.16618237  0.46042008     0.19090
H1916       H  0.53351651  0.18996601  0.45784732     0.19100
C1917       C  0.57106276  0.25468993  0.55223327    -0.06730
C1918       C  0.58371107  0.27445001  0.53819499    -0.17860
C1919       C  0.59725633  0.29442315  0.55088301     0.10460
C1920       C  0.59805161  0.29494683  0.57829075    -0.06660
C1921       C  0.58550106  0.27528619  0.59225318    -0.17890
C1922       C  0.57279341  0.25484543  0.57972270     0.10500
S1923       S  0.61180060  0.31927058  0.53109786    -0.32860
S1924       S  0.56111389  0.22827298  0.59934305    -0.32860
H1925       H  0.56541690  0.23949904  0.62385249     0.28510
H1926       H  0.60417195  0.33944595  0.54774802     0.28500
H1927       H  0.58254673  0.27467611  0.51717519     0.19090
H1928       H  0.58629929  0.27560842  0.61323871     0.19100
C1929       C  0.70002835  0.07099225  0.47396156    -0.06730
C1930       C  0.69408603  0.05726071  0.45116670    -0.17860
C1931       C  0.68201740  0.06943850  0.42980553     0.10460
C1932       C  0.67570344  0.09595216  0.43119737    -0.06660
C1933       C  0.68228918  0.10983426  0.45362054    -0.17890
C1934       C  0.69370819  0.09761470  0.47518811     0.10500
S1935       S  0.67569041  0.05029971  0.40123187    -0.32860
S1936       S  0.69752764  0.11674978  0.50420913    -0.32860
H1937       H  0.69036145  0.09696938  0.52151294     0.28510
H1938       H  0.67942138  0.07043395  0.38329355     0.28500
H1939       H  0.69893640  0.03690122  0.44999603     0.19090
H1940       H  0.67703518  0.13010871  0.45491209     0.19100
C1941       C  0.65993625  0.96677606  0.56866704    -0.06730
C1942       C  0.68745974  0.96242668  0.56505674    -0.17860
C1943       C  0.70322368  0.97985716  0.55119860     0.10460
C1944       C  0.69147245  0.00275179  0.54136257    -0.06660
C1945       C  0.66380181  0.00668844  0.54433042    -0.17890
C1946       C  0.64805216  0.98905489  0.55783194     0.10500
S1947       S  0.73788461  0.97132866  0.54614356    -0.32860
S1948       S  0.61362734  0.99740098  0.56283665    -0.32860
H1949       H  0.61597163  0.99395923  0.58988229     0.28510
H1950       H  0.74040116  0.98428031  0.52226563     0.28500
H1951       H  0.69671037  0.94507710  0.57283494     0.19090
H1952       H  0.65456079  0.02429358  0.53716717     0.19100
C1953       C  0.76431737  0.06843831  0.54800996    -0.06730
C1954       C  0.76071640  0.09467184  0.55381405    -0.17860
C1955       C  0.77931942  0.10811349  0.56882144     0.10460
C1956       C  0.80259435  0.09533041  0.57791464    -0.06660
C1957       C  0.80597989  0.06894289  0.57263970    -0.17890
C1958       C  0.78729619  0.05544021  0.55759673     0.10500
S1959       S  0.77138488  0.14110933  0.57686989    -0.32860
S1960       S  0.79456961  0.02208713  0.55049985    -0.32860
H1961       H  0.78218950  0.02190020  0.52591784     0.28510
H1962       H  0.78142554  0.13965194  0.60242180     0.28500
H1963       H  0.74281630  0.10464405  0.54716077     0.19090
H1964       H  0.82376947  0.05896114  0.57955970     0.19100
C1965       C  0.48396384  0.07065454  0.68712718    -0.06730
C1966       C  0.48889711  0.09705901  0.68378576    -0.17860
C1967       C  0.47155143  0.11275391  0.66939611     0.10460
C1968       C  0.44897635  0.10169245  0.65707259    -0.06660
C1969       C  0.44365578  0.07545128  0.66082402    -0.17890
C1970       C  0.46030593  0.06006845  0.67640323     0.10500
S1971       S  0.48009454  0.14648162  0.66746274    -0.32860
S1972       S  0.44931501  0.02765307  0.68304224    -0.32860
H1973       H  0.46206198  0.02564568  0.70739285     0.28510
H1974       H  0.46708775  0.15161648  0.64394767     0.28500
H1975       H  0.50694118  0.10549884  0.69176261     0.19090
H1976       H  0.42565914  0.06714866  0.65256686     0.19100
C1977       C  0.55773952  0.05960785  0.75265878    -0.06730
C1978       C  0.58550205  0.06300999  0.75002344    -0.17860
C1979       C  0.60090954  0.07370212  0.76999189     0.10460
C1980       C  0.58827361  0.08160779  0.79321757    -0.06660
C1981       C  0.56062555  0.07795358  0.79599628    -0.17890
C1982       C  0.54541813  0.06642251  0.77638584     0.10500
S1983       S  0.63628163  0.07735977  0.76395200    -0.32860
S1984       S  0.51077932  0.05980166  0.78346708    -0.32860
H1985       H  0.50942746  0.03717388  0.76849978     0.28510
H1986       H  0.63973503  0.10002133  0.77832868     0.28500
H1987       H  0.59522166  0.05794042  0.73193956     0.19090
H1988       H  0.55089912  0.08346329  0.81394754     0.19100
C1989       C  0.54788579  0.99704699  0.67908508    -0.06730
C1990       C  0.54701835  0.99883610  0.65182064    -0.17860
C1991       C  0.55935155  0.98047793  0.63602227     0.10460
C1992       C  0.57501706  0.96074611  0.64773126    -0.06660
C1993       C  0.57468183  0.95810883  0.67487331    -0.17890
C1994       C  0.56030201  0.97520086  0.69050270     0.10500
S1995       S  0.55353043  0.98409596  0.60155615    -0.32860
S1996       S  0.55748088  0.96711294  0.72448326    -0.32860
H1997       H  0.53225395  0.97885896  0.72781339     0.28510
H1998       H  0.57653985  0.97185970  0.59266041     0.28500
H1999       H  0.53727777  0.01510886  0.64247535     0.19090
H2000       H  0.58523412  0.94212805  0.68398516     0.19100
C2001       C  0.07227063  0.09195055  0.40233403    -0.06730
C2002       C  0.07606131  0.06510610  0.40225454    -0.17860
C2003       C  0.06052836  0.04886404  0.41761017     0.10460
C2004       C  0.03991273  0.05927866  0.43323230    -0.06660
C2005       C  0.03715092  0.08622198  0.43469049    -0.17890
C2006       C  0.05323918  0.10263303  0.41970311     0.10500
S2007       S  0.06830729  0.01493594  0.41659913    -0.32860
S2008       S  0.04852809  0.13684158  0.42388210    -0.32860
H2009       H  0.07585328  0.14282769  0.42158560     0.28510
H2010       H  0.06248538  0.01119536  0.44301984     0.28500
H2011       H  0.09092875  0.05647204  0.38963875     0.19090
H2012       H  0.02172155  0.09455507  0.44687206     0.19100
C2013       C  0.96078298  0.08108745  0.54686122    -0.06730
C2014       C  0.96183544  0.08161162  0.57411670    -0.17860
C2015       C  0.94219882  0.09403756  0.58851917     0.10460
C2016       C  0.92037592  0.10576293  0.57554192    -0.06660
C2017       C  0.92079259  0.10794077  0.54838953    -0.17890
C2018       C  0.94104147  0.09599863  0.53380576     0.10500
S2019       S  0.94628343  0.09423294  0.62335923    -0.32860
S2020       S  0.94047508  0.09920899  0.49889810    -0.32860
H2021       H  0.91715021  0.11445513  0.49697702     0.28510
H2022       H  0.93655805  0.11954893  0.62634787     0.28500
H2023       H  0.97765534  0.07140669  0.58442139     0.19090
H2024       H  0.90459191  0.11801616  0.53859369     0.19100
C2025       C  0.10172415  0.92316914  0.57414556    -0.06730
C2026       C  0.09059677  0.91529512  0.55051710    -0.17860
C2027       C  0.07425232  0.93189001  0.53592954     0.10460
C2028       C  0.06934574  0.95742483  0.54488950    -0.06660
C2029       C  0.08246281  0.96558295  0.56771303    -0.17890
C2030       C  0.09844259  0.94882070  0.58230793     0.10500
S2031       S  0.05962448  0.91843192  0.50700449    -0.32860
S2032       S  0.11403108  0.96134305  0.61120344    -0.32860
H2033       H  0.13689209  0.94543062  0.61000485     0.28510
H2034       H  0.03349408  0.91904874  0.51711056     0.28500
H2035       H  0.09345271  0.89557064  0.54409098     0.19090
H2036       H  0.07972024  0.98503774  0.57488126     0.19100
C2037       C  0.93094814  0.06406394  0.43341787    -0.06730
C2038       C  0.90760350  0.07269988  0.44576482    -0.17860
C2039       C  0.89152801  0.09212331  0.43468639     0.10460
C2040       C  0.89921932  0.10361048  0.41078383    -0.06660
C2041       C  0.92252081  0.09448529  0.39853916    -0.17890
C2042       C  0.93842906  0.07531429  0.40959417     0.10500
S2043       S  0.86196523  0.10129424  0.45237416    -0.32860
S2044       S  0.96931198  0.06769174  0.39328891    -0.32860
H2045       H  0.98454682  0.07148921  0.41588605     0.28510
H2046       H  0.84464299  0.09510513  0.43171827     0.28500
H2047       H  0.90181868  0.06419466  0.46413283     0.19090
H2048       H  0.92905922  0.10277021  0.38032672     0.19100
C2049       C  0.79294143  0.45729093  0.69550332    -0.06730
C2050       C  0.78882833  0.43050390  0.69659461    -0.17860
C2051       C  0.80380676  0.41343412  0.68115064     0.10460
C2052       C  0.82306875  0.42325503  0.66369550    -0.06660
C2053       C  0.82863261  0.44975759  0.66426918    -0.17890
C2054       C  0.81409132  0.46679270  0.67997873     0.10500
S2055       S  0.79753427  0.37946689  0.68486296    -0.32860
S2056       S  0.82297245  0.50061593  0.67983399    -0.32860
H2057       H  0.84177004  0.49951521  0.65958872     0.28510
H2058       H  0.82444924  0.37198930  0.68155121     0.28500
H2059       H  0.77302227  0.42284771  0.70866715     0.19090
H2060       H  0.84391553  0.45737757  0.65160178     0.19100
C2061       C  0.69112631  0.44838231  0.68960756    -0.06730
C2062       C  0.66761347  0.43764128  0.69949269    -0.17860
C2063       C  0.65522731  0.41677082  0.68716105     0.10460
C2064       C  0.66702822  0.40567804  0.66464751    -0.06660
C2065       C  0.69107158  0.41606988  0.65544934    -0.17890
C2066       C  0.70326815  0.43702013  0.66752787     0.10500
S2067       S  0.62442058  0.40572770  0.70125764    -0.32860
S2068       S  0.73495571  0.44806508  0.65473539    -0.32860
H2069       H  0.73988901  0.42735295  0.63777919     0.28510
H2070       H  0.60932831  0.41178068  0.67887297     0.28500
H2071       H  0.65847350  0.44594671  0.71663466     0.19090
H2072       H  0.70044168  0.40788139  0.63842103     0.19100
C2073       C  0.78220940  0.58636859  0.69574044    -0.06730
C2074       C  0.78120883  0.58960990  0.66863021    -0.17860
C2075       C  0.79992802  0.60460520  0.65559203     0.10460
C2076       C  0.82101505  0.61609558  0.66968075    -0.06660
C2077       C  0.82048917  0.61522376  0.69692565    -0.17890
C2078       C  0.80109145  0.60087617  0.71020204     0.10500
S2079       S  0.79546143  0.60853778  0.62104406    -0.32860
S2080       S  0.80180303  0.60071589  0.74529032    -0.32860
H2081       H  0.82365230  0.61737657  0.74869246     0.28510
H2082       H  0.80382239  0.63436948  0.62095921     0.28500
H2083       H  0.76608616  0.57975996  0.65727571     0.19090
H2084       H  0.83604098  0.62492006  0.70780798     0.19100
C2085       C  0.66708913  0.59011390  0.83479899    -0.06730
C2086       C  0.67957047  0.60043859  0.81274382    -0.17860
C2087       C  0.69524541  0.58479826  0.79629498     0.10460
C2088       C  0.69947571  0.55837962  0.80262544    -0.06660
C2089       C  0.68528861  0.54808351  0.82373626    -0.17890
C2090       C  0.66998249  0.56351462  0.84000204     0.10500
S2091       S  0.70905655  0.59980685  0.76782167    -0.32860
S2092       S  0.65732587  0.54841604  0.86892894    -0.32860
H2093       H  0.66689813  0.56838716  0.88476026     0.28510
H2094       H  0.70225750  0.57923912  0.75130227     0.28500
H2095       H  0.67683346  0.62067526  0.80813091     0.19090
H2096       H  0.68749421  0.52793492  0.82896521     0.19100
C2097       C  0.48350825  0.56742945  0.19140879    -0.06730
C2098       C  0.48543386  0.59412322  0.18762724    -0.17860
C2099       C  0.46560545  0.60789131  0.17420824     0.10460
C2100       C  0.44303601  0.59477714  0.16412722    -0.06660
C2101       C  0.44102995  0.56809775  0.16789471    -0.17890
C2102       C  0.46057226  0.55443350  0.18196187     0.10500
S2103       S  0.47112171  0.64197639  0.16980307    -0.32860
S2104       S  0.45433270  0.52078330  0.18824833    -0.32860
H2105       H  0.46822612  0.51989752  0.21206682     0.28510
H2106       H  0.45998590  0.64334980  0.14477349     0.28500
H2107       H  0.50305577  0.60425660  0.19437592     0.19090
H2108       H  0.42360658  0.55797617  0.16068654     0.19100
C2109       C  0.55482732  0.50067654  0.18237004    -0.06730
C2110       C  0.56052024  0.47672623  0.19396565    -0.17860
C2111       C  0.57102749  0.45625140  0.17944460     0.10460
C2112       C  0.57603745  0.45970235  0.15269598    -0.06660
C2113       C  0.57024780  0.48349694  0.14102717    -0.17890
C2114       C  0.56033491  0.50414382  0.15559914     0.10500
S2115       S  0.57687321  0.42600193  0.19594050    -0.32860
S2116       S  0.55679166  0.53472978  0.13912058    -0.32860
H2117       H  0.56323926  0.54989806  0.16086448     0.28510
H2118       H  0.57136750  0.41024648  0.17438022     0.28500
H2119       H  0.55618644  0.47376766  0.21435869     0.19090
H2120       H  0.57470849  0.48639159  0.12063673     0.19100
C2121       C  0.48450942  0.69008292  0.05720794    -0.06730
C2122       C  0.48310494  0.66336266  0.06093437    -0.17860
C2123       C  0.46320333  0.65234651  0.07630143     0.10460
C2124       C  0.44367676  0.66827156  0.08829528    -0.06660
C2125       C  0.44487846  0.69502698  0.08449722    -0.17890
C2126       C  0.46469426  0.70603652  0.06876313     0.10500
S2127       S  0.46483501  0.61783423  0.08063607    -0.32860
S2128       S  0.46279505  0.74036518  0.06329833    -0.32860
H2129       H  0.47472148  0.73982353  0.03860198     0.28510
H2130       H  0.45685999  0.61805857  0.10672939     0.28500
H2131       H  0.49839406  0.65094954  0.05268915     0.19090
H2132       H  0.42971430  0.70735591  0.09306462     0.19100
C2133       C  0.56553367  0.74577199  0.06065695    -0.06730
C2134       C  0.57491161  0.76709098  0.04662423    -0.17860
C2135       C  0.58797932  0.78738169  0.05903767     0.10460
C2136       C  0.59146877  0.78660308  0.08630490    -0.06660
C2137       C  0.58299471  0.76488628  0.10019333    -0.17890
C2138       C  0.57081470  0.74419373  0.08762596     0.10500
S2139       S  0.59860132  0.81391162  0.03891990    -0.32860
S2140       S  0.56375446  0.71598709  0.10692807    -0.32860
H2141       H  0.56720361  0.69821336  0.08658526     0.28510
H2142       H  0.59277113  0.83336090  0.05697286     0.28500
H2143       H  0.57117546  0.76841459  0.02590459     0.19090
H2144       H  0.58655145  0.76373248  0.12095574     0.19100
C2145       C  0.55306924  0.68700731  0.98534664    -0.06730
C2146       C  0.55789278  0.66038213  0.98487468    -0.17860
C2147       C  0.57251305  0.64898122  0.96477650     0.10460
C2148       C  0.58213807  0.66435242  0.94407697    -0.06660
C2149       C  0.57684066  0.69093342  0.94424170    -0.17890
C2150       C  0.56217048  0.70234117  0.96440543     0.10500
S2151       S  0.57987122  0.61502224  0.96782763    -0.32860
S2152       S  0.55533717  0.73646529  0.96207175    -0.32860
H2153       H  0.53145584  0.73598191  0.97644754     0.28510
H2154       H  0.60639037  0.61704048  0.95907738     0.28500
H2155       H  0.55153125  0.64855959  0.00107011     0.19090
H2156       H  0.58372076  0.70281826  0.92830561     0.19100
C2157       C  0.68037195  0.50441769  0.05223790    -0.06730
C2158       C  0.68442897  0.47934508  0.04287802    -0.17860
C2159       C  0.66919183  0.45882436  0.05205160     0.10460
C2160       C  0.64976700  0.46346081  0.07127223    -0.06660
C2161       C  0.64522986  0.48859354  0.08020885    -0.17890
C2162       C  0.66018194  0.50925442  0.07077323     0.10500
S2163       S  0.67608367  0.42719895  0.03908855    -0.32860
S2164       S  0.65225126  0.54090500  0.08337509    -0.32860
H2165       H  0.67196274  0.55532446  0.07075077     0.28510
H2166       H  0.65029349  0.41719025  0.04271018     0.28500
H2167       H  0.69959512  0.47577667  0.02828451     0.19090
H2168       H  0.63029656  0.49203636  0.09506063     0.19100
C2169       C  0.75984581  0.56259736  0.05644968    -0.06730
C2170       C  0.76181724  0.58947536  0.05810204    -0.17860
C2171       C  0.78250964  0.60126601  0.07178939     0.10460
C2172       C  0.80153115  0.58603944  0.08559661    -0.06660
C2173       C  0.79939190  0.55906836  0.08441964    -0.17890
C2174       C  0.77933242  0.54721026  0.06945185     0.10500
S2175       S  0.78272804  0.63599654  0.07128569    -0.32860
S2176       S  0.78084282  0.51258214  0.06657234    -0.32860
H2177       H  0.77040937  0.51171822  0.04116705     0.28510
H2178       H  0.80416245  0.63675430  0.05363317     0.28500
H2179       H  0.74690790  0.60160088  0.04868449     0.19090
H2180       H  0.81412370  0.54712186  0.09430990     0.19100
C2181       C  0.66540357  0.59478271  0.94280226    -0.06730
C2182       C  0.66779406  0.56782436  0.94244310    -0.17860
C2183       C  0.68274822  0.55460231  0.96127158     0.10460
C2184       C  0.69419852  0.56833301  0.98224237    -0.06660
C2185       C  0.69223597  0.59534219  0.98242483    -0.17890
C2186       C  0.67801848  0.60867176  0.96307243     0.10500
S2187       S  0.68704255  0.52029594  0.95695566    -0.32860
S2188       S  0.67498543  0.64314125  0.96671929    -0.32860
H2189       H  0.64783795  0.64431511  0.95940695     0.28510
H2190       H  0.71173189  0.51864430  0.97014346     0.28500
H2191       H  0.65829452  0.55686770  0.92715345     0.19090
H2192       H  0.70054548  0.60609036  0.99856657     0.19100
C2193       C  0.55598983  0.56010959  0.25962228    -0.06730
C2194       C  0.58397461  0.56299772  0.25916082    -0.17860
C2195       C  0.59794210  0.57433142  0.27980091     0.10460
C2196       C  0.58371143  0.58380839  0.30156521    -0.06660
C2197       C  0.55582979  0.58063326  0.30232064    -0.17890
C2198       C  0.54200708  0.56818960  0.28215505     0.10500
S2199       S  0.63382870  0.57659347  0.27645273    -0.32860
S2200       S  0.50695028  0.56182159  0.28729966    -0.32860
H2201       H  0.50660401  0.53869740  0.27306014     0.28510
H2202       H  0.63659680  0.60039876  0.28894265     0.28500
H2203       H  0.59514281  0.55705481  0.24217432     0.19090
H2204       H  0.54482382  0.58708413  0.31923424     0.19100
C2205       C  0.69240131  0.68354134  0.26404145    -0.06730
C2206       C  0.66470234  0.67954627  0.26163121    -0.17860
C2207       C  0.65020445  0.66639852  0.28069044     0.10460
C2208       C  0.66357563  0.65654840  0.30296053    -0.06660
C2209       C  0.69126150  0.66047064  0.30545992    -0.17890
C2210       C  0.70562239  0.67435167  0.28671145     0.10500
S2211       S  0.61479893  0.66245396  0.27476176    -0.32860
S2212       S  0.74033080  0.68096976  0.29375240    -0.32860
H2213       H  0.74084511  0.70491794  0.28090718     0.28510
H2214       H  0.61237750  0.63848931  0.28708242     0.28500
H2215       H  0.65426240  0.68618730  0.24435223     0.19090
H2216       H  0.70159680  0.65360568  0.32271787     0.19100
C2217       C  0.80452030  0.65491380  0.16839380    -0.06730
C2218       C  0.81140605  0.67044517  0.18967438    -0.17860
C2219       C  0.79165307  0.68347724  0.20401540     0.10460
C2220       C  0.76445033  0.68103858  0.19670263    -0.06660
C2221       C  0.75764036  0.66496997  0.17588388    -0.17890
C2222       C  0.77725736  0.65151703  0.16207571     0.10500
S2223       S  0.80258966  0.70259936  0.23131390    -0.32860
S2224       S  0.76614702  0.62998069  0.13692355    -0.32860
H2225       H  0.78606395  0.61122739  0.14137179     0.28510
H2226       H  0.77972037  0.71826188  0.23371467     0.28500
H2227       H  0.83230566  0.67268038  0.19493527     0.19090
H2228       H  0.73676544  0.66268654  0.17052559     0.19100
C2229       C  0.69672243  0.75184655  0.19398561    -0.06730
C2230       C  0.69377618  0.75002830  0.16682768    -0.17860
C2231       C  0.68047900  0.76915243  0.15236810     0.10460
C2232       C  0.66962637  0.79092159  0.16510278    -0.06660
C2233       C  0.67292818  0.79307214  0.19213187    -0.17890
C2234       C  0.68681057  0.77421932  0.20655350     0.10500
S2235       S  0.67655958  0.76373519  0.11797928    -0.32860
S2236       S  0.69216909  0.78057419  0.24061026    -0.32860
H2237       H  0.71696021  0.76762972  0.24222859     0.28510
H2238       H  0.64981593  0.77233618  0.11689541     0.28500
H2239       H  0.70098810  0.73301394  0.15679895     0.19090
H2240       H  0.66505976  0.80988901  0.20205305     0.19100
C2241       C  0.08370451  0.35385264  0.83348408    -0.06730
C2242       C  0.08219377  0.35444406  0.80628478    -0.17860
C2243       C  0.06410497  0.33903317  0.79274633     0.10460
C2244       C  0.04610154  0.32318485  0.80662449    -0.06660
C2245       C  0.04775504  0.32221052  0.83372813    -0.17890
C2246       C  0.06611424  0.33738158  0.84733667     0.10500
S2247       S  0.06631150  0.33938831  0.75774000    -0.32860
S2248       S  0.06512674  0.33499076  0.88227028    -0.32860
H2249       H  0.06898130  0.36134926  0.88661924     0.28510
H2250       H  0.06153489  0.31284553  0.75484545     0.28500
H2251       H  0.09596769  0.36626559  0.79532260     0.19090
H2252       H  0.03405062  0.31011602  0.84446866     0.19100
C2253       C  0.66731541  0.41353475  0.83741969    -0.06730
C2254       C  0.68189609  0.40027793  0.81797298    -0.17860
C2255       C  0.70145434  0.41269124  0.80288660     0.10460
C2256       C  0.70645712  0.43903420  0.80707771    -0.06660
C2257       C  0.69120126  0.45230396  0.82576979    -0.17890
C2258       C  0.67196645  0.44017987  0.84090689     0.10500
S2259       S  0.71966978  0.39384079  0.77942816    -0.32860
S2260       S  0.65363249  0.45975458  0.86402969    -0.32860
H2261       H  0.66240729  0.48409185  0.85564163     0.28510
H2262       H  0.74383063  0.40740035  0.78194218     0.28500
H2263       H  0.67845070  0.37992817  0.81478180     0.19090
H2264       H  0.69436591  0.47275004  0.82855430     0.19100
C2265       C  0.31969970  0.51365013  0.93745146    -0.06730
C2266       C  0.30480972  0.53632046  0.93298674    -0.17860
C2267       C  0.31579894  0.55710257  0.91956512     0.10460
C2268       C  0.34251393  0.55562591  0.91105324    -0.06660
C2269       C  0.35785244  0.53352233  0.91656648    -0.17890
C2270       C  0.34659290  0.51229243  0.92909646     0.10500
S2271       S  0.29538058  0.58546139  0.91492658    -0.32860
S2272       S  0.36705007  0.48366296  0.93224237    -0.32860
H2273       H  0.34621062  0.46618283  0.92736407     0.28510
H2274       H  0.29613813  0.58394959  0.88767868     0.28500
H2275       H  0.28422794  0.53758477  0.93950034     0.19090
H2276       H  0.37840771  0.53233086  0.90994457     0.19100
C2277       C  0.24624647  0.45040258  0.93121018    -0.06730
C2278       C  0.22180913  0.44787901  0.94422375    -0.17860
C2279       C  0.19882957  0.43965314  0.93115674     0.10460
C2280       C  0.20022457  0.43360055  0.90442429    -0.06660
C2281       C  0.22444187  0.43675790  0.89121544    -0.17890
C2282       C  0.24755450  0.44457035  0.90436292     0.10500
S2283       S  0.16826095  0.43770850  0.94960453    -0.32860
S2284       S  0.27833493  0.44497518  0.88610441    -0.32860
H2285       H  0.29501495  0.43767917  0.90697792     0.28510
H2286       H  0.15107001  0.44318075  0.92860570     0.28500
H2287       H  0.22052394  0.45274882  0.96465046     0.19090
H2288       H  0.22578168  0.43153030  0.87087688     0.19100
C2289       C  0.31195777  0.44396776  0.00521616    -0.06730
C2290       C  0.31376920  0.41691927  0.00454196    -0.17860
C2291       C  0.32565489  0.40289954  0.02481622     0.10460
C2292       C  0.33667937  0.41613925  0.04633074    -0.06660
C2293       C  0.33444313  0.44308029  0.04734138    -0.17890
C2294       C  0.32150098  0.45700795  0.02755735     0.10500
S2295       S  0.32670839  0.36828243  0.02131792    -0.32860
S2296       S  0.31650600  0.49106272  0.03287014    -0.32860
H2297       H  0.29213252  0.49264463  0.01913025     0.28510
H2298       H  0.35182081  0.36458526  0.03301768     0.28500
H2299       H  0.30660846  0.40654849  0.98765560     0.19090
H2300       H  0.34211097  0.45330645  0.06412132     0.19100
C2301       C  0.51361888  0.43948628  0.80899647    -0.06730
C2302       C  0.53280800  0.45353712  0.82297286    -0.17860
C2303       C  0.55368307  0.44127307  0.83636545     0.10460
C2304       C  0.55584312  0.41402807  0.83594874    -0.06660
C2305       C  0.53719735  0.39994689  0.82154721    -0.17890
C2306       C  0.51598045  0.41212875  0.80841477     0.10500
S2307       S  0.57729261  0.46176371  0.85281189    -0.32860
S2308       S  0.49110420  0.39171700  0.79355059    -0.32860
H2309       H  0.50677363  0.36909922  0.79255014     0.28510
H2310       H  0.59964279  0.44733294  0.84467851     0.28500
H2311       H  0.53183450  0.47441238  0.82318510     0.19090
H2312       H  0.53846041  0.37909989  0.82171172     0.19100
C2313       C  0.44482648  0.51118960  0.80782608    -0.06730
C2314       C  0.41691105  0.51065459  0.81095092    -0.17860
C2315       C  0.40325215  0.53045617  0.82385475     0.10460
C2316       C  0.41758532  0.55182088  0.83364038    -0.06660
C2317       C  0.44552917  0.55230059  0.83077185    -0.17890
C2318       C  0.45921078  0.53252525  0.81769621     0.10500
S2319       S  0.36773709  0.52648576  0.82848093    -0.32860
S2320       S  0.49478130  0.53635915  0.81325120    -0.32860
H2321       H  0.49581363  0.52406503  0.78894364     0.28510
H2322       H  0.36770093  0.53614142  0.85399847     0.28500
H2323       H  0.40568713  0.49423330  0.80394521     0.19090
H2324       H  0.45671469  0.56863881  0.83802711     0.19100
C2325       C  0.44706841  0.44452883  0.73797820    -0.06730
C2326       C  0.44868005  0.45377053  0.71244381    -0.17860
C2327       C  0.43817364  0.43947017  0.69168851     0.10460
C2328       C  0.42659376  0.41509735  0.69662292    -0.06660
C2329       C  0.42493867  0.40614678  0.72216486    -0.17890
C2330       C  0.43419089  0.42087200  0.74286894     0.10500
S2331       S  0.44019017  0.45345079  0.65963032    -0.32860
S2332       S  0.42763314  0.40889253  0.77513770    -0.32860
H2333       H  0.42591074  0.43305285  0.78732089     0.28510
H2334       H  0.43814515  0.43039957  0.64564827     0.28500
H2335       H  0.45836028  0.47202991  0.70866809     0.19090
H2336       H  0.41496917  0.38820167  0.72625741     0.19100
C2337       C  0.50684217  0.31339601  0.93687375    -0.06730
C2338       C  0.53003718  0.29932351  0.93065675    -0.17860
C2339       C  0.55281927  0.31158094  0.92083121     0.10460
C2340       C  0.55247858  0.33857084  0.91674414    -0.06660
C2341       C  0.52945071  0.35267282  0.92329284    -0.17890
C2342       C  0.50656366  0.34042575  0.93275563     0.10500
S2343       S  0.58200455  0.29185694  0.91481565    -0.32860
S2344       S  0.47719160  0.36028035  0.93758192    -0.32860
H2345       H  0.45860806  0.34125550  0.93046390     0.28510
H2346       H  0.60071706  0.31091143  0.92156393     0.28500
H2347       H  0.53060376  0.27869338  0.93400558     0.19090
H2348       H  0.52878081  0.37327236  0.91973807     0.19100
C2349       C  0.43574308  0.31069639  0.00422967    -0.06730
C2350       C  0.43251307  0.33756669  0.00321897    -0.17860
C2351       C  0.41970163  0.35109509  0.02300645     0.10460
C2352       C  0.40951338  0.33759551  0.04467772    -0.06660
C2353       C  0.41203872  0.31062631  0.04553458    -0.17890
C2354       C  0.42548591  0.29709073  0.02585409     0.10500
S2355       S  0.41665170  0.38555179  0.01882064    -0.32860
S2356       S  0.43020777  0.26287466  0.03034293    -0.32860
H2357       H  0.45507929  0.26153899  0.01768601     0.28510
H2358       H  0.39136744  0.38782375  0.03030700     0.28500
H2359       H  0.43969639  0.34819889  0.98653038     0.19090
H2360       H  0.40455873  0.30015932  0.06220610     0.19100
C2361       C  0.43392046  0.24730510  0.93106177    -0.06730
C2362       C  0.44671136  0.22324676  0.92864439    -0.17860
C2363       C  0.43333499  0.20206379  0.91790447     0.10460
C2364       C  0.40668006  0.20502706  0.90904589    -0.06660
C2365       C  0.39404179  0.22913995  0.91112215    -0.17890
C2366       C  0.40745661  0.25034451  0.92160348     0.10500
S2367       S  0.45085148  0.17155526  0.91720092    -0.32860
S2368       S  0.38995385  0.28088624  0.92174167    -0.32860
H2369       H  0.41291285  0.29625959  0.91929427     0.28510
H2370       H  0.42812735  0.15618546  0.92100311     0.28500
H2371       H  0.46691616  0.22072085  0.93603887     0.19090
H2372       H  0.37373225  0.23161063  0.90395877     0.19100
C2373       C  0.32770501  0.20514694  0.83546111    -0.06730
C2374       C  0.34509036  0.22464472  0.82720673    -0.17860
C2375       C  0.33546808  0.24749815  0.81596476     0.10460
C2376       C  0.30765275  0.25075802  0.81136689    -0.06660
C2377       C  0.29018835  0.23114708  0.81955103    -0.17890
C2378       C  0.29985618  0.20851956  0.83154741     0.10500
S2379       S  0.35972410  0.27241661  0.80989232    -0.32860
S2380       S  0.27576397  0.18441666  0.84062274    -0.32860
H2381       H  0.29264375  0.16313266  0.83592897     0.28510
H2382       H  0.34264437  0.29302511  0.81653567     0.28500
H2383       H  0.36642018  0.22262555  0.83076798     0.19090
H2384       H  0.26884365  0.23330335  0.81625238     0.19100
C2385       C  0.31387890  0.31861362  0.74161955    -0.06730
C2386       C  0.34201739  0.31760854  0.74175938    -0.17860
C2387       C  0.35725498  0.32864924  0.72189716     0.10460
C2388       C  0.34435165  0.34173482  0.70103205    -0.06660
C2389       C  0.31619715  0.34275765  0.70078465    -0.17890
C2390       C  0.30091449  0.33084722  0.72028886     0.10500
S2391       S  0.39312280  0.32574810  0.72521282    -0.32860
S2392       S  0.26509145  0.33055031  0.71573268    -0.32860
H2393       H  0.26119237  0.30645300  0.72765338     0.28510
H2394       H  0.39867509  0.35004824  0.71483741     0.28500
H2395       H  0.35243729  0.30859499  0.75792890     0.19090
H2396       H  0.30593742  0.35204858  0.68467405     0.19100
C2397       C  0.24419192  0.32634810  0.81218014    -0.06730
C2398       C  0.22162934  0.33291872  0.79710582    -0.17860
C2399       C  0.19921953  0.34507791  0.80810448     0.10460
C2400       C  0.19918243  0.35119162  0.83489579    -0.06660
C2401       C  0.22166071  0.34453716  0.85000838    -0.17890
C2402       C  0.24423777  0.33270667  0.83893845     0.10500
S2403       S  0.17092829  0.35138729  0.78706751    -0.32860
S2404       S  0.27300212  0.32775508  0.85972305    -0.32860
H2405       H  0.29221224  0.33130920  0.84015857     0.28510
H2406       H  0.15135720  0.34728627  0.80618999     0.28500
H2407       H  0.22119292  0.32795808  0.77666156     0.19090
H2408       H  0.22216796  0.34971380  0.87039511     0.19100
C2409       C  0.83007264  0.15923071  0.06909744    -0.06730
C2410       C  0.82755645  0.15262620  0.04269723    -0.17860
C2411       C  0.81017024  0.16611430  0.02627675     0.10460
C2412       C  0.79530727  0.18694358  0.03623471    -0.06660
C2413       C  0.79538653  0.19174315  0.06296929    -0.17890
C2414       C  0.81227240  0.17776025  0.07970696     0.10500
S2415       S  0.80971861  0.15753385  0.99233156    -0.32860
S2416       S  0.81104803  0.18428184  0.11417982    -0.32860
H2417       H  0.78937042  0.20172740  0.11343936     0.28510
H2418       H  0.78413417  0.16775422  0.98700529     0.28500
H2419       H  0.84025879  0.13782418  0.03434212     0.19090
H2420       H  0.78369380  0.20775576  0.07038674     0.19100
C2421       C  0.67061209  0.15354517  0.90538518    -0.06730
C2422       C  0.67446276  0.17971773  0.90016615    -0.17860
C2423       C  0.68814964  0.19536275  0.91754105     0.10460
C2424       C  0.69748240  0.18496765  0.94130747    -0.06660
C2425       C  0.69515659  0.15844828  0.94602039    -0.17890
C2426       C  0.68168163  0.14256536  0.92824744     0.10500
S2427       S  0.69295343  0.22860758  0.90829134    -0.32860
S2428       S  0.67756858  0.10909856  0.93669152    -0.32860
H2429       H  0.65147037  0.10714780  0.92656640     0.28510
H2430       H  0.71748765  0.23153102  0.92148624     0.28500
H2431       H  0.66681402  0.18806297  0.88226019     0.19090
H2432       H  0.70238632  0.15041702  0.96420570     0.19100
C2433       C  0.67917680  0.30984682  0.04697255    -0.06730
C2434       C  0.65334839  0.30576462  0.05665384    -0.17860
C2435       C  0.63867066  0.32600600  0.06773177     0.10460
C2436       C  0.64997227  0.35090017  0.06890314    -0.06660
C2437       C  0.67564831  0.35495331  0.05911804    -0.17890
C2438       C  0.69022131  0.33483351  0.04804382     0.10500
S2439       S  0.60677901  0.31844080  0.08199828    -0.32860
S2440       S  0.72221420  0.34251474  0.03434887    -0.32860
H2441       H  0.73597847  0.33105347  0.05533759     0.28510
H2442       H  0.59296514  0.33903900  0.07021738     0.28500
H2443       H  0.64466495  0.28668739  0.05573574     0.19090
H2444       H  0.68451021  0.37392558  0.06028591     0.19100
C2445       C  0.70416119  0.31337320  0.95371510    -0.06730
C2446       C  0.68529584  0.32973416  0.96522478    -0.17860
C2447       C  0.66649047  0.34307784  0.95021814     0.10460
C2448       C  0.66700749  0.34083327  0.92279458    -0.06660
C2449       C  0.68727768  0.32593331  0.91120521    -0.17890
C2450       C  0.70582631  0.31219531  0.92641490     0.10500
S2451       S  0.63992594  0.35918073  0.96747873    -0.32860
S2452       S  0.73035583  0.29243231  0.91013785    -0.32860
H2453       H  0.74809458  0.29046471  0.93136233     0.28510
H2454       H  0.64992620  0.38379023  0.96156696     0.28500
H2455       H  0.68322074  0.32988876  0.98618949     0.19090
H2456       H  0.68829026  0.32447175  0.89023600     0.19100
C2457       C  0.83538041  0.33863649  0.08912082    -0.06730
C2458       C  0.83101853  0.31265913  0.09506826    -0.17860
C2459       C  0.81327542  0.29787881  0.08045051     0.10460
C2460       C  0.80030836  0.30891329  0.05857027    -0.06660
C2461       C  0.80367461  0.33515758  0.05323706    -0.17890
C2462       C  0.82110932  0.35014694  0.06818598     0.10500
S2463       S  0.80757369  0.26518457  0.09111222    -0.32860
S2464       S  0.82510597  0.38334814  0.05850237    -0.32860
H2465       H  0.85192133  0.38551192  0.06638670     0.28510
H2466       H  0.78105468  0.26392683  0.08184401     0.28500
H2467       H  0.84090114  0.30398144  0.11174845     0.19090
H2468       H  0.79391999  0.34367616  0.03641202     0.19100
C2469       C  0.79687719  0.06308336  0.18194589    -0.06730
C2470       C  0.81468323  0.04891710  0.16628173    -0.17860
C2471       C  0.83432887  0.06088357  0.15142513     0.10460
C2472       C  0.83682778  0.08797268  0.15210848    -0.06660
C2473       C  0.81974376  0.10215234  0.16863380    -0.17890
C2474       C  0.79970334  0.09009463  0.18327812     0.10500
S2475       S  0.85630851  0.04026998  0.13303780    -0.32860
S2476       S  0.77771281  0.11032666  0.20209973    -0.32860
H2477       H  0.75433390  0.09660626  0.19591931     0.28510
H2478       H  0.84422046  0.04722984  0.10926674     0.28500
H2479       H  0.81322854  0.02810690  0.16544200     0.19090
H2480       H  0.82137528  0.12295229  0.16952863     0.19100
C2481       C  0.70097924  0.06325957  0.28686503    -0.06730
C2482       C  0.71145031  0.08752405  0.29312195    -0.17860
C2483       C  0.69709266  0.10492480  0.30872589     0.10460
C2484       C  0.67204377  0.09749555  0.31929009    -0.06660
C2485       C  0.66065911  0.07429769  0.31057946    -0.17890
C2486       C  0.67457207  0.05750789  0.29429798     0.10500
S2487       S  0.71237844  0.13568519  0.31479188    -0.32860
S2488       S  0.65763957  0.02872496  0.28413476    -0.32860
H2489       H  0.67282223  0.02493246  0.26148491     0.28510
H2490       H  0.68873256  0.14968797  0.30946476     0.28500
H2491       H  0.73156568  0.09240016  0.28707461     0.19090
H2492       H  0.64095422  0.06860070  0.31707980     0.19100
C2493       C  0.65681411  0.90456475  0.16340216    -0.06730
C2494       C  0.66776086  0.92342593  0.14707518    -0.17860
C2495       C  0.67941011  0.94575098  0.15711155     0.10460
C2496       C  0.67956711  0.94966869  0.18430611    -0.06660
C2497       C  0.66719140  0.93145235  0.20050577    -0.17890
C2498       C  0.65630306  0.90881160  0.19046121     0.10500
S2499       S  0.69594387  0.96757301  0.13495398    -0.32860
S2500       S  0.64434523  0.88529967  0.21341147    -0.32860
H2501       H  0.65567296  0.86401559  0.20045722     0.28510
H2502       H  0.69063207  0.95403884  0.11186463     0.28500
H2503       H  0.66766897  0.92034601  0.12627782     0.19090
H2504       H  0.66756168  0.93405514  0.22139421     0.19100
C2505       C  0.80394918  0.06077043  0.30313114    -0.06730
C2506       C  0.79974732  0.06282909  0.33012687    -0.17860
C2507       C  0.81061975  0.08279201  0.34475386     0.10460
C2508       C  0.82566240  0.10212040  0.33231804    -0.06660
C2509       C  0.83072159  0.09982709  0.30557007    -0.17890
C2510       C  0.82053210  0.07929720  0.29097384     0.10500
S2511       S  0.80532926  0.08163213  0.37936251    -0.32860
S2512       S  0.82969248  0.07821049  0.25716984    -0.32860
H2513       H  0.83732947  0.05205441  0.25810701     0.28510
H2514       H  0.83225733  0.08686465  0.38541719     0.28500
H2515       H  0.78768813  0.04877368  0.34025736     0.19090
H2516       H  0.84278145  0.11418851  0.29585524     0.19100
C2517       C  0.08346384  0.91117983  0.42644045    -0.06730
C2518       C  0.05870805  0.89856764  0.42779485    -0.17860
C2519       C  0.03578378  0.91144845  0.43660958     0.10460
C2520       C  0.03813823  0.93709755  0.44514298    -0.06660
C2521       C  0.06337414  0.94882577  0.44580017    -0.17890
C2522       C  0.08603213  0.93624208  0.43639004     0.10500
S2523       S  0.00420533  0.89489065  0.43445964    -0.32860
S2524       S  0.11748701  0.95314604  0.43741773    -0.32860
H2525       H  0.13377627  0.93102585  0.43957186     0.28510
H2526       H  0.99056527  0.90952091  0.45316568     0.28500
H2527       H  0.05700665  0.87896181  0.42083573     0.19090
H2528       H  0.06533258  0.96815472  0.45338119     0.19100
C2529       C  0.44481991  0.81081528  0.49917317    -0.06730
C2530       C  0.46258339  0.81944726  0.51860583    -0.17860
C2531       C  0.45334512  0.83284029  0.54058972     0.10460
C2532       C  0.42559952  0.83752757  0.54367741    -0.06660
C2533       C  0.40788555  0.82803308  0.52487821    -0.17890
C2534       C  0.41711379  0.81601373  0.50231453     0.10500
S2535       S  0.47777213  0.84231841  0.56456223    -0.32860
S2536       S  0.39257710  0.81060027  0.47724393    -0.32860
H2537       H  0.40982807  0.81774921  0.45697067     0.28510
H2538       H  0.46084284  0.83843809  0.58595370     0.28500
H2539       H  0.48382419  0.81546126  0.51684368     0.19090
H2540       H  0.38659900  0.83136312  0.52699638     0.19100
C2541       C  0.31777000  0.94564716  0.50769914    -0.06730
C2542       C  0.32426646  0.91948474  0.50444958    -0.17860
C2543       C  0.34056432  0.90646523  0.52229824     0.10460
C2544       C  0.35050367  0.91959340  0.54423415    -0.06660
C2545       C  0.34416688  0.94576176  0.54757808    -0.17890
C2546       C  0.32763102  0.95883808  0.52976598     0.10500
S2547       S  0.34931180  0.87353004  0.51526153    -0.32860
S2548       S  0.31899470  0.99187824  0.53689623    -0.32860
H2549       H  0.29371384  0.99144073  0.52476076     0.28510
H2550       H  0.37601377  0.87627801  0.52353907     0.28500
H2551       H  0.31730929  0.90929837  0.48735455     0.19090
H2552       H  0.35144953  0.95584544  0.56460496     0.19100
C2553       C  0.31354791  0.01085555  0.43647308    -0.06730
C2554       C  0.34061337  0.00784592  0.42975926    -0.17860
C2555       C  0.35424861  0.02699151  0.41617896     0.10460
C2556       C  0.34074421  0.04989690  0.40893572    -0.06660
C2557       C  0.31355431  0.05280193  0.41501760    -0.17890
C2558       C  0.29995812  0.03380125  0.42911717     0.10500
S2559       S  0.38870093  0.02075724  0.40799632    -0.32860
S2560       S  0.26597266  0.04084672  0.43853442    -0.32860
H2561       H  0.26735549  0.02790013  0.46253074     0.28510
H2562       H  0.38674911  0.03228879  0.38333783     0.28500
H2563       H  0.35120051  0.99024681  0.43491208     0.19090
H2564       H  0.30320026  0.07052053  0.40984943     0.19100
C2565       C  0.24216774  0.94297346  0.44441675    -0.06730
C2566       C  0.24420291  0.91605449  0.44195271    -0.17860
C2567       C  0.22363796  0.90156127  0.43085099     0.10460
C2568       C  0.20011541  0.91394508  0.42185751    -0.06660
C2569       C  0.19795613  0.94086437  0.42427808    -0.17890
C2570       C  0.21837377  0.95540000  0.43588534     0.10500
S2571       S  0.22954279  0.86758913  0.42700939    -0.32860
S2572       S  0.21217969  0.98939113  0.44027163    -0.32860
H2573       H  0.22695307  0.99152220  0.46348485     0.28510
H2574       H  0.21929423  0.86710925  0.40152447     0.28500
H2575       H  0.26242817  0.90622776  0.44796597     0.19090
H2576       H  0.17991756  0.95059723  0.41762498     0.19100
C2577       C  0.70282406  0.92980183  0.29073858    -0.06730
C2578       C  0.71241158  0.90599824  0.29998130    -0.17860
C2579       C  0.69516552  0.88860017  0.31244545     0.10460
C2580       C  0.66796549  0.89563811  0.31605289    -0.06660
C2581       C  0.65844244  0.91886175  0.30575479    -0.17890
C2582       C  0.67524949  0.93550943  0.29246222     0.10500
S2583       S  0.70975400  0.85887942  0.32439770    -0.32860
S2584       S  0.66004732  0.96383652  0.27835980    -0.32860
H2585       H  0.67953938  0.96821020  0.25934142     0.28510
H2586       H  0.68715288  0.84845335  0.33639294     0.28500
H2587       H  0.73355967  0.90144462  0.29849138     0.19090
H2588       H  0.63767398  0.92428256  0.30841139     0.19100
C2589       C  0.55657707  0.82147461  0.39940164    -0.06730
C2590       C  0.53296153  0.81539025  0.38595450    -0.17860
C2591       C  0.51027020  0.80647413  0.39901018     0.10460
C2592       C  0.51131493  0.80231699  0.42621313    -0.06660
C2593       C  0.53516957  0.80799745  0.43960203    -0.17890
C2594       C  0.55772445  0.81741139  0.42654892     0.10500
S2595       S  0.48011096  0.80271659  0.38000281    -0.32860
S2596       S  0.58759498  0.82307847  0.44547539    -0.32860
H2597       H  0.60567838  0.81638185  0.42567493     0.28510
H2598       H  0.46272123  0.81140624  0.39958863     0.28500
H2599       H  0.53168076  0.81895142  0.36522695     0.19090
H2600       H  0.53637272  0.80471343  0.46037096     0.19100
C2601       C  0.51103580  0.93019402  0.31025115    -0.06730
C2602       C  0.53505522  0.93037764  0.29625635    -0.17860
C2603       C  0.55668613  0.91461025  0.30355421     0.10460
C2604       C  0.55433099  0.89861716  0.32567319    -0.06660
C2605       C  0.53019282  0.89829952  0.33947293    -0.17890
C2606       C  0.50837569  0.91349937  0.33173829     0.10500
S2607       S  0.58675695  0.91693692  0.28443020    -0.32860
S2608       S  0.47784261  0.91068823  0.35014910    -0.32860
H2609       H  0.46001366  0.91644614  0.32973777     0.28510
H2610       H  0.59778904  0.89282869  0.29080349     0.28500
H2611       H  0.53691633  0.94289611  0.27948786     0.19090
H2612       H  0.52832216  0.88601052  0.35642558     0.19100
C2613       C  0.43441369  0.94221226  0.25007117    -0.06730
C2614       C  0.44741561  0.93818944  0.22627309    -0.17860
C2615       C  0.43361001  0.92862152  0.20472169     0.10460
C2616       C  0.40618099  0.92274217  0.20694334    -0.06660
C2617       C  0.39289992  0.92760587  0.23039311    -0.17890
C2618       C  0.40678538  0.93678778  0.25210913     0.10500
S2619       S  0.45194142  0.92472981  0.17484542    -0.32860
S2620       S  0.38853307  0.93932731  0.28217681    -0.32860
H2621       H  0.41004895  0.93195838  0.29834019     0.28510
H2622       H  0.43002913  0.92965802  0.15825425     0.28500
H2623       H  0.46851528  0.94261433  0.22446591     0.19090
H2624       H  0.37190344  0.92276667  0.23225749     0.19100
C2625       C  0.42826761  0.05326832  0.34182483    -0.06730
C2626       C  0.43935380  0.03375447  0.35757997    -0.17860
C2627       C  0.44936236  0.01078520  0.34686992     0.10460
C2628       C  0.45053273  0.00793809  0.31950304    -0.06660
C2629       C  0.44187572  0.02863693  0.30387218    -0.17890
C2630       C  0.43032468  0.05082635  0.31449339     0.10500
S2631       S  0.45726154  0.98510139  0.36932113    -0.32860
S2632       S  0.41808035  0.07459032  0.29157029    -0.32860
H2633       H  0.41939538  0.09597594  0.30803943     0.28510
H2634       H  0.44569206  0.96561240  0.35406006     0.28500
H2635       H  0.43806423  0.03538058  0.37850854     0.19090
H2636       H  0.44331327  0.02719317  0.28292346     0.19100
C2637       C  0.40600341  0.69793099  0.41350724    -0.06730
C2638       C  0.39534977  0.72294731  0.41405465    -0.17860
C2639       C  0.41037125  0.74367736  0.42331106     0.10460
C2640       C  0.43620371  0.73929717  0.43388000    -0.06660
C2641       C  0.44688854  0.71417264  0.43349844    -0.17890
C2642       C  0.43209266  0.69347585  0.42340312     0.10500
S2643       S  0.39599536  0.77538414  0.41934941    -0.32860
S2644       S  0.44724636  0.66182163  0.42429276    -0.32860
H2645       H  0.42320963  0.64816027  0.42720599     0.28510
H2646       H  0.42037916  0.78828176  0.41582993     0.28500
H2647       H  0.37554981  0.72658107  0.40608577     0.19090
H2648       H  0.46673509  0.71062568  0.44137916     0.19100
C2649       C  0.23296306  0.80852574  0.31414572    -0.06730
C2650       C  0.23381667  0.80676216  0.34134989    -0.17860
C2651       C  0.21448845  0.81860388  0.35677080     0.10460
C2652       C  0.19495874  0.83488181  0.34514481    -0.06660
C2653       C  0.19396803  0.83664723  0.31793592    -0.17890
C2654       C  0.21187885  0.82280090  0.30236465     0.10500
S2655       S  0.21628068  0.81196349  0.39104347    -0.32860
S2656       S  0.20543766  0.82288505  0.26787252    -0.32860
H2657       H  0.21501101  0.79767016  0.26370462     0.28510
H2658       H  0.19167176  0.79887660  0.39106243     0.28500
H2659       H  0.24970687  0.79598495  0.35088693     0.19090
H2660       H  0.17836643  0.84804444  0.30865164     0.19100
C2661       C  0.32654786  0.69911092  0.33571998    -0.06730
C2662       C  0.29935615  0.69710883  0.32919962    -0.17860
C2663       C  0.28657855  0.71597354  0.31402696     0.10460
C2664       C  0.30095447  0.73807689  0.30614569    -0.06660
C2665       C  0.32838075  0.73961817  0.31214739    -0.17890
C2666       C  0.34128783  0.72046437  0.32673292     0.10500
S2667       S  0.25228928  0.71016570  0.30464342    -0.32860
S2668       S  0.37619280  0.72525075  0.33441094    -0.32860
H2669       H  0.37497812  0.71445808  0.35938368     0.28510
H2670       H  0.25332610  0.72437234  0.28137725     0.28500
H2671       H  0.28815370  0.68038969  0.33545142     0.19090
H2672       H  0.33962728  0.75652103  0.30652511     0.19100
C2673       C  0.30274181  0.81319992  0.24518936    -0.06730
C2674       C  0.32965427  0.81995217  0.24882926    -0.17860
C2675       C  0.34273975  0.83587299  0.23109758     0.10460
C2676       C  0.32876361  0.84502976  0.20899678    -0.06660
C2677       C  0.30182366  0.83847524  0.20544115    -0.17890
C2678       C  0.28880948  0.82231655  0.22300855     0.10500
S2679       S  0.37682564  0.84477273  0.23836743    -0.32860
S2680       S  0.25489773  0.81315822  0.21535226    -0.32860
H2681       H  0.25607522  0.78889967  0.22755162     0.28510
H2682       H  0.37486408  0.86971599  0.22776524     0.28500
H2683       H  0.34030240  0.81341167  0.26603769     0.19090
H2684       H  0.29115107  0.84516430  0.18831576     0.19100
C2685       C  0.45219202  0.03420254  0.07342890    -0.06730
C2686       C  0.43717856  0.02213073  0.09290756    -0.17860
C2687       C  0.42049645  0.03640208  0.10954436     0.10460
C2688       C  0.41795641  0.06347961  0.10612165    -0.06660
C2689       C  0.43505370  0.07554249  0.08812615    -0.17890
C2690       C  0.45202814  0.06129589  0.07193711     0.10500
S2691       S  0.40131373  0.01847377  0.13283059    -0.32860
S2692       S  0.47087278  0.07858352  0.04776748    -0.32860
H2693       H  0.49076594  0.05956874  0.04451774     0.28510
H2694       H  0.41003269  0.03355066  0.15390609     0.28500
H2695       H  0.43691908  0.00124908  0.09392036     0.19090
H2696       H  0.43429485  0.09627814  0.08562510     0.19100
C2697       C  0.56574130  0.05489140  0.95037002    -0.06730
C2698       C  0.55023295  0.06770209  0.93148815    -0.17860
C2699       C  0.56186166  0.07832835  0.90937687     0.10460
C2700       C  0.58994379  0.07725357  0.90636488    -0.06660
C2701       C  0.60562123  0.06500787  0.92541039    -0.17890
C2702       C  0.59396891  0.05393530  0.94742880     0.10500
S2703       S  0.53951539  0.09135558  0.88497787    -0.32860
S2704       S  0.61568934  0.03981381  0.97191699    -0.32860
H2705       H  0.63991659  0.04223328  0.95830315     0.28510
H2706       H  0.55478019  0.08262758  0.86379347     0.28500
H2707       H  0.52864875  0.06825904  0.93319102     0.19090
H2708       H  0.62718136  0.06470990  0.92331422     0.19100
C2709       C  0.55275367  0.93999754  0.06718579    -0.06730
C2710       C  0.54295528  0.91480022  0.06486375    -0.17860
C2711       C  0.55641631  0.89372207  0.07620055     0.10460
C2712       C  0.58060529  0.89791915  0.08996807    -0.06660
C2713       C  0.59011306  0.92318278  0.09266559    -0.17890
C2714       C  0.57640471  0.94417729  0.08163388     0.10500
S2715       S  0.54248070  0.86216615  0.07035794    -0.32860
S2716       S  0.59037493  0.97583854  0.08613474    -0.32860
H2717       H  0.56601997  0.98938813  0.08351617     0.28510
H2718       H  0.55783622  0.84786378  0.08813446     0.28500
H2719       H  0.52544897  0.91134625  0.05291863     0.19090
H2720       H  0.60841644  0.92659471  0.10351148     0.19100
C2721       C  0.42820529  0.94087550  0.04905009    -0.06730
C2722       C  0.40424583  0.95188243  0.05810109    -0.17860
C2723       C  0.39057306  0.94152947  0.07924809     0.10460
C2724       C  0.40121763  0.91959099  0.09223508    -0.06660
C2725       C  0.42469644  0.90803233  0.08231656    -0.17890
C2726       C  0.43803676  0.91821808  0.06087291     0.10500
S2727       S  0.36025714  0.95796153  0.08870525    -0.32860
S2728       S  0.46738078  0.90133578  0.04949950    -0.32860
H2729       H  0.46497209  0.90950978  0.02351911     0.28510
H2730       H  0.34447426  0.93571840  0.08606308     0.28500
H2731       H  0.39668044  0.96954735  0.04939806     0.19090
H2732       H  0.43298681  0.89084983  0.09132477     0.19100
C2733       C  0.40751292  0.09707071  0.91880544    -0.06730
C2734       C  0.42639945  0.08098012  0.90640283    -0.17860
C2735       C  0.44302083  0.06392696  0.92044855     0.10460
C2736       C  0.44071909  0.06229613  0.94777386    -0.06660
C2737       C  0.42204194  0.07861506  0.96011836    -0.17890
C2738       C  0.40588231  0.09599711  0.94624087     0.10500
S2739       S  0.46548033  0.04378107  0.90215987    -0.32860
S2740       S  0.38437941  0.11667714  0.96516165    -0.32860
H2741       H  0.39235047  0.13935639  0.95239523     0.28510
H2742       H  0.48831818  0.05333805  0.91479397     0.28500
H2743       H  0.42818362  0.08149365  0.88544243     0.19090
H2744       H  0.42008056  0.07808192  0.98107260     0.19100
C2745       C  0.03906977  0.80662650  0.19303444    -0.06730
C2746       C  0.02816061  0.82807080  0.18003198    -0.17860
C2747       C  0.04375995  0.84406988  0.16462244     0.10460
C2748       C  0.07147437  0.83910073  0.16212095    -0.06660
C2749       C  0.08247213  0.81715449  0.17444805    -0.17890
C2750       C  0.06656623  0.80084263  0.18989089     0.10500
S2751       S  0.02759591  0.87232568  0.15129903    -0.32860
S2752       S  0.08285325  0.77403564  0.20592623    -0.32860
H2753       H  0.06533405  0.77220054  0.22707890     0.28510
H2754       H  0.02963637  0.86325356  0.12563069     0.28500
H2755       H  0.00730266  0.83322694  0.18293460     0.19090
H2756       H  0.10369779  0.81311320  0.17264766     0.19100
C2757       C  0.95516119  0.70169931  0.31163957    -0.06730
C2758       C  0.93006430  0.69607379  0.30081956    -0.17860
C2759       C  0.91246131  0.67896475  0.31299685     0.10460
C2760       C  0.92061244  0.66605892  0.33608830    -0.06660
C2761       C  0.94513599  0.67326503  0.34763951    -0.17890
C2762       C  0.96223750  0.69095119  0.33582985     0.10500
S2763       S  0.88050436  0.67415356  0.29746190    -0.32860
S2764       S  0.99405099  0.69707388  0.35127494    -0.32860
H2765       H  0.99640954  0.72237613  0.34183644     0.28510
H2766       H  0.86597363  0.67762615  0.32058333     0.28500
H2767       H  0.92465506  0.70417098  0.28207295     0.19090
H2768       H  0.95172719  0.66438008  0.36563635     0.19100
C2769       C  0.95750373  0.69080379  0.18828093    -0.06730
C2770       C  0.95956005  0.66366923  0.18904649    -0.17860
C2771       C  0.94109060  0.64787833  0.17624235     0.10460
C2772       C  0.91979227  0.65929625  0.16215422    -0.06660
C2773       C  0.91843082  0.68633832  0.16044899    -0.17890
C2774       C  0.93653429  0.70204909  0.17366611     0.10500
S2775       S  0.94613032  0.61350589  0.17843548    -0.32860
S2776       S  0.92939034  0.73591913  0.17386532    -0.32860
H2777       H  0.92757832  0.73656732  0.20111631     0.28510
H2778       H  0.93963043  0.60879735  0.15225305     0.28500
H2779       H  0.97548195  0.65459432  0.20022597     0.19090
H2780       H  0.90209554  0.69547487  0.14990322     0.19100
C2781       C  0.04344030  0.80997700  0.32004812    -0.06730
C2782       C  0.03578572  0.83051438  0.33603688    -0.17860
C2783       C  0.05482501  0.84456341  0.35003728     0.10460
C2784       C  0.08203526  0.83680978  0.34941422    -0.06660
C2785       C  0.08965180  0.81613280  0.33354077    -0.17890
C2786       C  0.07089825  0.80346980  0.31790248     0.10500
S2787       S  0.04275991  0.87231202  0.36759387    -0.32860
S2788       S  0.08383739  0.78084195  0.29429391    -0.32860
H2789       H  0.06248090  0.78176972  0.27652248     0.28510
H2790       H  0.06645665  0.88661058  0.36733233     0.28500
H2791       H  0.01494090  0.83646228  0.33659581     0.19090
H2792       H  0.11063747  0.81082764  0.33215985     0.19100
C2793       C  0.05975463  0.69443829  0.31500217    -0.06730
C2794       C  0.05948604  0.66726739  0.31377749    -0.17860
C2795       C  0.07036966  0.65189660  0.33343946     0.10460
C2796       C  0.08303356  0.66374822  0.35482309    -0.06660
C2797       C  0.08353283  0.69072514  0.35627130    -0.17890
C2798       C  0.07121829  0.70611159  0.33728586     0.10500
S2799       S  0.06671279  0.61744043  0.32976518    -0.32860
S2800       S  0.07013833  0.74011103  0.34364804    -0.32860
H2801       H  0.04208645  0.74071307  0.34586869     0.28510
H2802       H  0.09061012  0.61013026  0.34213972     0.28500
H2803       H  0.04987794  0.65758210  0.29763861     0.19090
H2804       H  0.09263451  0.69991581  0.37299787     0.19100
C2805       C  0.81198392  0.70258259  0.43704036    -0.06730
C2806       C  0.82423423  0.68221869  0.45071885    -0.17860
C2807       C  0.83680071  0.66196381  0.43783690     0.10460
C2808       C  0.83808849  0.66231255  0.41048172    -0.06660
C2809       C  0.82493643  0.68214141  0.39665881    -0.17890
C2810       C  0.81200398  0.70236014  0.40965133     0.10500
S2811       S  0.84963176  0.63577059  0.45745951    -0.32860
S2812       S  0.79734531  0.72781642  0.39030477    -0.32860
H2813       H  0.80450969  0.74787535  0.40726865     0.28510
H2814       H  0.84186851  0.61630911  0.44000569     0.28500
H2815       H  0.82361963  0.68184947  0.47177287     0.19090
H2816       H  0.82564090  0.68244697  0.37562053     0.19100
C2817       C  0.70300725  0.78629861  0.42748948    -0.06730
C2818       C  0.70637297  0.81300866  0.42689413    -0.17860
C2819       C  0.69159078  0.82826702  0.40956480     0.10460
C2820       C  0.67231961  0.81655815  0.39314586    -0.06660
C2821       C  0.67114560  0.78955930  0.39197957    -0.17890
C2822       C  0.68635746  0.77431227  0.40903918     0.10500
S2823       S  0.69787717  0.86246887  0.40989815    -0.32860
S2824       S  0.68328957  0.73965718  0.40831912    -0.32860
H2825       H  0.66586280  0.73836529  0.38682540     0.28510
H2826       H  0.69242003  0.86617910  0.38332254     0.28500
H2827       H  0.71951956  0.82213458  0.44089761     0.19090
H2828       H  0.65692745  0.78045404  0.37903834     0.19100
C2829       C  0.69619945  0.82008733  0.54723033    -0.06730
C2830       C  0.69735545  0.82110884  0.57439384    -0.17860
C2831       C  0.68379775  0.84035306  0.58804226     0.10460
C2832       C  0.66917156  0.85935422  0.57411013    -0.06660
C2833       C  0.66911347  0.85893336  0.54688448    -0.17890
C2834       C  0.68281129  0.83983121  0.53330124     0.10500
S2835       S  0.68478266  0.83836097  0.62303140    -0.32860
S2836       S  0.68311886  0.84228416  0.49830617    -0.32860
H2837       H  0.70944963  0.83288354  0.49548468     0.28510
H2838       H  0.65781126  0.84510119  0.62676797     0.28500
H2839       H  0.70776496  0.80606313  0.58512102     0.19090
H2840       H  0.65850750  0.87379053  0.53606270     0.19100
C2841       C  0.69041481  0.68906186  0.45353011    -0.06730
C2842       C  0.70492853  0.67267828  0.43688562    -0.17860
C2843       C  0.69204441  0.65718567  0.41831992     0.10460
C2844       C  0.66379863  0.65829935  0.41554095    -0.06660
C2845       C  0.64928352  0.67415282  0.43247459    -0.17890
C2846       C  0.66195317  0.68910350  0.45144122     0.10500
S2847       S  0.71298885  0.63815012  0.39732979    -0.32860
S2848       S  0.64022971  0.70929987  0.47061859    -0.32860
H2849       H  0.64825552  0.69764775  0.49413033     0.28510
H2850       H  0.70306557  0.61470339  0.40701174     0.28500
H2851       H  0.72661302  0.67238234  0.43783539     0.19090
H2852       H  0.62764742  0.67509989  0.43082449     0.19100
C2853       C  0.79819446  0.72744656  0.56606416    -0.06730
C2854       C  0.81647758  0.73950456  0.58275527    -0.17860
C2855       C  0.83194923  0.72511659  0.60030104     0.10460
C2856       C  0.82929592  0.69799878  0.60082403    -0.06660
C2857       C  0.80911617  0.68644034  0.58573823    -0.17890
C2858       C  0.79350206  0.70090588  0.56851141     0.10500
S2859       S  0.85716683  0.74201877  0.61850814    -0.32860
S2860       S  0.76963087  0.68425987  0.54841675    -0.32860
H2861       H  0.75165912  0.70515798  0.54706057     0.28510
H2862       H  0.84777584  0.73302863  0.64258223     0.28500
H2863       H  0.82033584  0.75995072  0.58057648     0.19090
H2864       H  0.80647880  0.66573814  0.58622709     0.19100
C2865       C  0.16516271  0.09059507  0.84175452    -0.06730
C2866       C  0.18423491  0.10307430  0.82641317    -0.17860
C2867       C  0.19703964  0.09053436  0.80587278     0.10460
C2868       C  0.19047271  0.06458613  0.79997460    -0.06660
C2869       C  0.17103881  0.05216966  0.81495193    -0.17890
C2870       C  0.15837730  0.06476999  0.83568798     0.10500
S2871       S  0.22271106  0.10794704  0.78847208    -0.32860
S2872       S  0.13505253  0.04626827  0.85448969    -0.32860
H2873       H  0.11299330  0.06121496  0.84619518     0.28510
H2874       H  0.22430810  0.12939033  0.80508702     0.28500
H2875       H  0.18927040  0.12290437  0.83061190     0.19090
H2876       H  0.16558036  0.03255134  0.81045722     0.19100
C2877       C  0.22057650  0.95413294  0.68101765    -0.06730
C2878       C  0.19300369  0.95915315  0.68191108    -0.17860
C2879       C  0.17475876  0.94350066  0.66844026     0.10460
C2880       C  0.18423784  0.92312020  0.65245849    -0.06660
C2881       C  0.21196671  0.91945359  0.65022249    -0.17890
C2882       C  0.22996712  0.93387801  0.66499693     0.10500
S2883       S  0.13974378  0.94983902  0.67346224    -0.32860
S2884       S  0.26452082  0.92387135  0.66433932    -0.32860
H2885       H  0.26434381  0.91469385  0.69004276     0.28510
H2886       H  0.13679841  0.92817021  0.68966538     0.28500
H2887       H  0.18548692  0.97396573  0.69484815     0.19090
H2888       H  0.21969779  0.90377270  0.63849150     0.19100
C2889       C  0.30195153  0.07066397  0.68468391    -0.06730
C2890       C  0.29701924  0.09738811  0.68298377    -0.17860
C2891       C  0.31478684  0.11389179  0.67026692     0.10460
C2892       C  0.33804510  0.10350202  0.65881543    -0.06660
C2893       C  0.34287445  0.07686774  0.66032284    -0.17890
C2894       C  0.32566128  0.06058345  0.67379531     0.10500
S2895       S  0.30642408  0.14773448  0.66894186    -0.32860
S2896       S  0.33707461  0.02816445  0.67931959    -0.32860
H2897       H  0.33118551  0.02875394  0.70601432     0.28510
H2898       H  0.31640969  0.15179046  0.64377100     0.28500
H2899       H  0.27923799  0.10552507  0.69187231     0.19090
H2900       H  0.36105727  0.06885240  0.65208054     0.19100
C2901       C  0.32699319  0.95502407  0.68892590    -0.06730
C2902       C  0.34708112  0.93802513  0.69770818    -0.17860
C2903       C  0.36395667  0.92520901  0.68025328     0.10460
C2904       C  0.35988763  0.92841959  0.65330528    -0.06660
C2905       C  0.34100536  0.94642320  0.64446818    -0.17890
C2906       C  0.32463628  0.95990238  0.66180258     0.10500
S2907       S  0.39008995  0.90506508  0.69367548    -0.32860
S2908       S  0.30031737  0.98153871  0.64727805    -0.32860
H2909       H  0.27937958  0.97623251  0.66432962     0.28510
H2910       H  0.40706304  0.90582696  0.67200528     0.28500
H2911       H  0.34953240  0.93456624  0.71835446     0.19090
H2912       H  0.33814261  0.94914510  0.62374335     0.19100
C2913       C  0.32038300  0.09234569  0.84128934    -0.06730
C2914       C  0.33312257  0.07571093  0.82352225    -0.17860
C2915       C  0.31849631  0.05855328  0.80801997     0.10460
C2916       C  0.29036996  0.05802260  0.80991093    -0.06660
C2917       C  0.27768782  0.07341863  0.82857071    -0.17890
C2918       C  0.29222547  0.09024517  0.84442955     0.10500
S2919       S  0.33656036  0.03959259  0.78451309    -0.32860
S2920       S  0.27303929  0.11017743  0.86619175    -0.32860
H2921       H  0.28601944  0.10029403  0.88842762     0.28510
H2922       H  0.31893759  0.01860461  0.78491325     0.28500
H2923       H  0.35463504  0.07659422  0.82105199     0.19090
H2924       H  0.25600697  0.07337501  0.82980206     0.19100
C2925       C  0.06590215  0.46321161  0.05988762    -0.06730
C2926       C  0.08582491  0.44862228  0.04726536    -0.17860
C2927       C  0.09976672  0.42862028  0.05955962     0.10460
C2928       C  0.09353988  0.42177833  0.08552978    -0.06660
C2929       C  0.07329733  0.43610192  0.09821667    -0.17890
C2930       C  0.05983947  0.45684445  0.08594087     0.10500
S2931       S  0.12492964  0.41268510  0.04024962    -0.32860
S2932       S  0.03624701  0.47497714  0.10502263    -0.32860
H2933       H  0.04382958  0.49911102  0.09507354     0.28510
H2934       H  0.14599478  0.42123914  0.05627451     0.28500
H2935       H  0.09080173  0.45274901  0.02721992     0.19090
H2936       H  0.06828423  0.43156847  0.11815143     0.19100
C2937       C  0.05773989  0.57994753  0.94410701    -0.06730
C2938       C  0.04462658  0.57992552  0.91980796    -0.17860
C2939       C  0.05663412  0.58998906  0.89774229     0.10460
C2940       C  0.08248902  0.60040879  0.89995511    -0.06660
C2941       C  0.09495059  0.60215685  0.92433049    -0.17890
C2942       C  0.08260869  0.59251032  0.94654974     0.10500
S2943       S  0.03823428  0.58701027  0.86752032    -0.32860
S2944       S  0.09929638  0.59725067  0.97726728    -0.32860
H2945       H  0.07550845  0.59880599  0.99177355     0.28510
H2946       H  0.05613518  0.59896294  0.85058654     0.28500
H2947       H  0.02550988  0.57041765  0.91741350     0.19090
H2948       H  0.11429311  0.61140857  0.92608209     0.19100
C2949       C  0.94851058  0.55084414  0.05040041    -0.06730
C2950       C  0.92764332  0.56554074  0.03907513    -0.17860
C2951       C  0.91082944  0.58115614  0.05385038     0.10460
C2952       C  0.91520906  0.58327612  0.08080460    -0.06660
C2953       C  0.93736169  0.57044111  0.09200470    -0.17890
C2954       C  0.95447746  0.55485003  0.07699022     0.10500
S2955       S  0.88250267  0.59562128  0.03739833    -0.32860
S2956       S  0.98310293  0.54069170  0.09296579    -0.32860
H2957       H  0.00110677  0.54824365  0.07348015     0.28510
H2958       H  0.86384131  0.58813549  0.05632455     0.28500
H2959       H  0.92319833  0.56368017  0.01853292     0.19090
H2960       H  0.94134235  0.57256824  0.11260073     0.19100
C2961       C  0.06129926  0.47929834  0.93362506    -0.06730
C2962       C  0.04931322  0.45592525  0.92652444    -0.17860
C2963       C  0.06300530  0.43803059  0.91083047     0.10460
C2964       C  0.08937055  0.44335194  0.90255348    -0.06660
C2965       C  0.10043544  0.46744635  0.90817866    -0.17890
C2966       C  0.08672909  0.48541961  0.92336023     0.10500
S2967       S  0.04571816  0.40914388  0.90160370    -0.32860
S2968       S  0.10300186  0.51578441  0.92938593    -0.32860
H2969       H  0.07909928  0.53019311  0.92899077     0.28510
H2970       H  0.05855447  0.40662293  0.87744921     0.28500
H2971       H  0.02966956  0.45119898  0.93394669     0.19090
H2972       H  0.12033586  0.47205583  0.90129684     0.19100
C2973       C  0.94970768  0.44239128  0.04780980    -0.06730
C2974       C  0.93538146  0.42082446  0.03922958    -0.17860
C2975       C  0.92207292  0.40494937  0.05698192     0.10460
C2976       C  0.92251510  0.41150177  0.08362537    -0.06660
C2977       C  0.93757998  0.43234960  0.09218052    -0.17890
C2978       C  0.95100342  0.44786355  0.07465960     0.10500
S2979       S  0.90430319  0.37755443  0.04414899    -0.32860
S2980       S  0.96672240  0.47608500  0.08763591    -0.32860
H2981       H  0.95157965  0.49261547  0.07160911     0.28510
H2982       H  0.90208876  0.36359060  0.06737530     0.28500
H2983       H  0.93433429  0.41652932  0.01865621     0.19090
H2984       H  0.93788826  0.43728989  0.11265769     0.19100
C2985       C  0.18678293  0.80396157  0.05599008    -0.06730
C2986       C  0.18443703  0.80068725  0.08290892    -0.17860
C2987       C  0.16925209  0.81791835  0.09784429     0.10460
C2988       C  0.15671928  0.83941413  0.08577869    -0.06660
C2989       C  0.15945392  0.84286406  0.05892911    -0.17890
C2990       C  0.17457386  0.82568091  0.04401980     0.10500
S2991       S  0.16515718  0.81040210  0.13180092    -0.32860
S2992       S  0.17842019  0.83323090  0.00999832    -0.32860
H2993       H  0.20485906  0.82386278  0.00823972     0.28510
H2994       H  0.13821555  0.81843009  0.13290171     0.28500
H2995       H  0.19341917  0.78394313  0.09217013     0.19090
H2996       H  0.15038659  0.85952680  0.04958152     0.19100
C2997       C  0.16196433  0.66762208  0.90077558    -0.06730
C2998       C  0.18909025  0.66140721  0.90548598    -0.17860
C2999       C  0.20296823  0.67151274  0.92688177     0.10460
C3000       C  0.18994284  0.68914525  0.94346593    -0.06660
C3001       C  0.16258507  0.69441138  0.93937459    -0.17890
C3002       C  0.14841969  0.68353125  0.91878906     0.10500
S3003       S  0.23658229  0.66010145  0.93276693    -0.32860
S3004       S  0.11293947  0.69011747  0.91748810    -0.32860
H3005       H  0.10598342  0.66418785  0.91332654     0.28510
H3006       H  0.23552009  0.66269341  0.95994170     0.28500
H3007       H  0.19957194  0.64837068  0.89255968     0.19090
H3008       H  0.15206230  0.70766839  0.95205326     0.19100
C3009       C  0.31392562  0.70901981  0.93275349    -0.06730
C3010       C  0.29892319  0.69317024  0.91617244    -0.17860
C3011       C  0.31095733  0.67282435  0.90232800     0.10460
C3012       C  0.33884719  0.66803360  0.90519757    -0.06660
C3013       C  0.35400182  0.68499221  0.92046165    -0.17890
C3014       C  0.34211980  0.70561592  0.93359995     0.10500
S3015       S  0.28981628  0.65235015  0.88273332    -0.32860
S3016       S  0.36439650  0.72717765  0.95053130    -0.32860
H3017       H  0.34902446  0.74944283  0.94530671     0.28510
H3018       H  0.26760303  0.66914477  0.88162868     0.28500
H3019       H  0.27746284  0.69590366  0.91506327     0.19090
H3020       H  0.37551900  0.68244536  0.92191018     0.19100
C3021       C  0.29477658  0.71252611  0.06362200    -0.06730
C3022       C  0.31182671  0.72292585  0.08243964    -0.17860
C3023       C  0.32970557  0.70731213  0.09636010     0.10460
C3024       C  0.32958949  0.68017143  0.09258641    -0.06660
C3025       C  0.31098074  0.66966207  0.07504437    -0.17890
C3026       C  0.29379085  0.68556207  0.06044578     0.10500
S3027       S  0.35438101  0.72390763  0.11570396    -0.32860
S3028       S  0.27223534  0.67064862  0.03678385    -0.32860
H3029       H  0.25275086  0.69029284  0.03718304     0.28510
H3030       H  0.37617917  0.71025788  0.10506363     0.28500
H3031       H  0.31342163  0.74370843  0.08416115     0.19090
H3032       H  0.31033488  0.64899883  0.07208859     0.19100
C3033       C  0.30397787  0.81719500  0.05580900    -0.06730
C3034       C  0.28969225  0.82096064  0.07901718    -0.17860
C3035       C  0.30033958  0.83549518  0.09936813     0.10460
C3036       C  0.32608063  0.84610309  0.09678485    -0.06660
C3037       C  0.33996294  0.84324701  0.07335945    -0.17890
C3038       C  0.32897562  0.82944070  0.05266422     0.10500
S3039       S  0.28144754  0.83755204  0.12902421    -0.32860
S3040       S  0.34759481  0.82867804  0.02274540    -0.32860
H3041       H  0.32481053  0.82863162  0.00655462     0.28510
H3042       H  0.28360875  0.86444268  0.13120139     0.28500
H3043       H  0.27055389  0.81162733  0.08181315     0.19090
H3044       H  0.35949304  0.85199271  0.07114269     0.19100
C3045       C  0.46605891  0.68962266  0.68854016    -0.06730
C3046       C  0.45072885  0.67340223  0.70440265    -0.17860
C3047       C  0.42911012  0.65942234  0.69428459     0.10460
C3048       C  0.42181208  0.66235452  0.66771762    -0.06660
C3049       C  0.43836742  0.67712843  0.65166694    -0.17890
C3050       C  0.46078032  0.68982471  0.66144730     0.10500
S3051       S  0.41191545  0.63860215  0.71660203    -0.32860
S3052       S  0.48219091  0.70508431  0.63790870    -0.32860
H3053       H  0.50609087  0.69874975  0.65112742     0.28510
H3054       H  0.38631497  0.64699489  0.70923382     0.28500
H3055       H  0.45488320  0.67232078  0.72506009     0.19090
H3056       H  0.43429570  0.67825932  0.63099584     0.19100
C3057       C  0.47181722  0.81542359  0.68445668    -0.06730
C3058       C  0.44476706  0.81779844  0.69123591    -0.17860
C3059       C  0.42691157  0.83227799  0.67577808     0.10460
C3060       C  0.43672321  0.84547707  0.65361371    -0.06660
C3061       C  0.46403492  0.84397344  0.64784661    -0.17890
C3062       C  0.48139468  0.82852221  0.66233185     0.10500
S3063       S  0.39215634  0.83213570  0.68522765    -0.32860
S3064       S  0.51533326  0.82440270  0.65102977    -0.32860
H3065       H  0.51458069  0.84284869  0.63098396     0.28510
H3066       H  0.38478922  0.85550273  0.67353635     0.28500
H3067       H  0.43725414  0.80723794  0.70783277     0.19090
H3068       H  0.47155740  0.85371179  0.63078501     0.19100
C3069       C  0.44669354  0.70540860  0.80514741    -0.06730
C3070       C  0.42809383  0.69094138  0.79069983    -0.17860
C3071       C  0.41345226  0.67092499  0.80209722     0.10460
C3072       C  0.41686561  0.66537122  0.82883254    -0.06660
C3073       C  0.43460043  0.68050960  0.84339336    -0.17890
C3074       C  0.44976189  0.69988095  0.83205470     0.10500
S3075       S  0.39175909  0.65266340  0.78116603    -0.32860
S3076       S  0.47355576  0.71535619  0.85334530    -0.32860
H3077       H  0.49566433  0.70928550  0.83763101     0.28510
H3078       H  0.40185889  0.62865431  0.78958984     0.28500
H3079       H  0.42546617  0.69467928  0.77012580     0.19090
H3080       H  0.43729408  0.67687469  0.86398411     0.19100
C3081       C  0.55099132  0.70201460  0.79795176    -0.06730
C3082       C  0.53866317  0.68087304  0.80977724    -0.17860
C3083       C  0.55263738  0.66506261  0.82729790     0.10460
C3084       C  0.58026310  0.66940768  0.83201418    -0.06660
C3085       C  0.59289648  0.68965808  0.81856756    -0.17890
C3086       C  0.57853527  0.70609948  0.80192904     0.10500
S3087       S  0.53307068  0.64188926  0.84497313    -0.32860
S3088       S  0.59617886  0.73247753  0.78701211    -0.32860
H3089       H  0.57859583  0.73560532  0.76581056     0.28510
H3090       H  0.54195064  0.65053755  0.86943963     0.28500
H3091       H  0.51730949  0.67807453  0.80719203     0.19090
H3092       H  0.61403600  0.69326211  0.82155074     0.19100
C3093       C  0.57157216  0.81441535  0.68341108    -0.06730
C3094       C  0.58517541  0.80786246  0.66040231    -0.17860
C3095       C  0.59457958  0.82683278  0.64336219     0.10460
C3096       C  0.59177783  0.85307423  0.65009846    -0.06660
C3097       C  0.57930282  0.85973461  0.67333645    -0.17890
C3098       C  0.56827410  0.84106526  0.68947899     0.10500
S3099       S  0.61023352  0.81609460  0.61374164    -0.32860
S3100       S  0.54753898  0.85343077  0.71527577    -0.32860
H3101       H  0.52461034  0.84027592  0.70686026     0.28510
H3102       H  0.60188836  0.83684970  0.59816257     0.28500
H3103       H  0.58745165  0.78779774  0.65497701     0.19090
H3104       H  0.57696995  0.87993623  0.67833789     0.19100
C3105       C  0.15360492  0.17051150  0.40313114    -0.06730
C3106       C  0.16853332  0.19179530  0.39503954    -0.17860
C3107       C  0.18410055  0.20574925  0.41265710     0.10460
C3108       C  0.18443972  0.19867181  0.43915502    -0.06660
C3109       C  0.16921619  0.17759270  0.44734740    -0.17890
C3110       C  0.15398393  0.16324353  0.42964354     0.10500
S3111       S  0.20241385  0.23280278  0.40022522    -0.32860
S3112       S  0.13466529  0.13693166  0.44271099    -0.32860
H3113       H  0.12852318  0.12430592  0.41946544     0.28510
H3114       H  0.22523884  0.22826311  0.41556349     0.28500
H3115       H  0.16832751  0.19739070  0.37473895     0.19090
H3116       H  0.16898327  0.17244129  0.46775933     0.19100
C3117       C  0.33473483  0.18578463  0.58651691    -0.06730
C3118       C  0.31398253  0.17315930  0.57320163    -0.17860
C3119       C  0.29413518  0.18719335  0.55999167     0.10460
C3120       C  0.29521414  0.21429477  0.55984987    -0.06660
C3121       C  0.31468826  0.22684747  0.57465568    -0.17890
C3122       C  0.33436272  0.21303369  0.58799981     0.10500
S3123       S  0.26870340  0.16969686  0.54259846    -0.32860
S3124       S  0.36043037  0.23155411  0.60328406    -0.32860
H3125       H  0.35211069  0.22469778  0.62843518     0.28510
H3126       H  0.25030940  0.19028628  0.54112988     0.28500
H3127       H  0.31354621  0.15228436  0.57259081     0.19090
H3128       H  0.31637633  0.24762840  0.57357870     0.19100
C3129       C  0.31126227  0.31039359  0.55362496    -0.06730
C3130       C  0.33268014  0.32547156  0.54478817    -0.17860
C3131       C  0.34945300  0.33850484  0.56217984     0.10460
C3132       C  0.34511674  0.33599993  0.58909767    -0.06660
C3133       C  0.32404060  0.32089683  0.59803796    -0.17890
C3134       C  0.30719453  0.30788784  0.58083699     0.10500
S3135       S  0.37646852  0.35724119  0.54887925    -0.32860
S3136       S  0.28294701  0.28707207  0.59592468    -0.32860
H3137       H  0.26684801  0.28296794  0.57442011     0.28510
H3138       H  0.37701983  0.37597604  0.56851505     0.28500
H3139       H  0.33654708  0.32686857  0.52412987     0.19090
H3140       H  0.32085660  0.31900240  0.61878478     0.19100
C3141       C  0.19526192  0.29991490  0.44640378    -0.06730
C3142       C  0.17197427  0.31116226  0.45725352    -0.17860
C3143       C  0.15395118  0.32551617  0.44265143     0.10460
C3144       C  0.15924709  0.33022490  0.41635926    -0.06660
C3145       C  0.18281309  0.32007971  0.40522241    -0.17890
C3146       C  0.20112407  0.30531490  0.42009774     0.10500
S3147       S  0.12330562  0.33535378  0.45842774    -0.32860
S3148       S  0.23177740  0.29512709  0.40485209    -0.32860
H3149       H  0.24762758  0.29823357  0.42727856     0.28510
H3150       H  0.10667679  0.32879780  0.43736783     0.28500
H3151       H  0.16647379  0.30765745  0.47726949     0.19090
H3152       H  0.18719205  0.32408016  0.38502111     0.19100
C3153       C  0.30193541  0.19908931  0.43346558    -0.06730
C3154       C  0.30822547  0.20212016  0.40715004    -0.17860
C3155       C  0.32421691  0.18376611  0.39420063     0.10460
C3156       C  0.33421366  0.16188737  0.40791497    -0.06660
C3157       C  0.32697486  0.15857316  0.43391266    -0.17890
C3158       C  0.31068577  0.17650581  0.44657143     0.10500
S3159       S  0.33240930  0.19045743  0.36079725    -0.32860
S3160       S  0.30214608  0.16965141  0.47988810    -0.32860
H3161       H  0.27744018  0.18284276  0.47950191     0.28510
H3162       H  0.35761312  0.17846702  0.36126048     0.28500
H3163       H  0.30198761  0.21951304  0.39706494     0.19090
H3164       H  0.33386663  0.14165895  0.44445531     0.19100
C3165       C  0.15713176  0.33605102  0.59695017    -0.06730
C3166       C  0.18462726  0.33958758  0.59311146    -0.17860
C3167       C  0.19986418  0.32192993  0.57865060     0.10460
C3168       C  0.18782230  0.29910372  0.56892892    -0.06660
C3169       C  0.16054027  0.29496380  0.57449768    -0.17890
C3170       C  0.14515428  0.31313928  0.58805436     0.10500
S3171       S  0.23335183  0.33167550  0.57069927    -0.32860
S3172       S  0.11020430  0.30614829  0.59303250    -0.32860
H3173       H  0.10819140  0.31894009  0.61701102     0.28510
H3174       H  0.22903576  0.32953741  0.54375747     0.28500
H3175       H  0.19387515  0.35728228  0.59969877     0.19090
H3176       H  0.15071154  0.27778267  0.56738438     0.19100
C3177       C  0.17959314  0.41571903  0.15878557    -0.06730
C3178       C  0.20728592  0.41103074  0.15930336    -0.17860
C3179       C  0.22453561  0.42621069  0.17441491     0.10460
C3180       C  0.21405485  0.44677753  0.18934335    -0.06660
C3181       C  0.18667470  0.45271949  0.18734665    -0.17890
C3182       C  0.16942406  0.43758750  0.17206605     0.10500
S3183       S  0.25996085  0.41881899  0.17500413    -0.32860
S3184       S  0.13473178  0.44725433  0.17014313    -0.32860
H3185       H  0.13088526  0.43888699  0.14440986     0.28510
H3186       H  0.25936535  0.39854878  0.15690007     0.28500
H3187       H  0.21525663  0.39464636  0.14879478     0.19090
H3188       H  0.17849563  0.46858391  0.19852009     0.19100
C3189       C  0.28702440  0.56433253  0.18778561    -0.06730
C3190       C  0.31408152  0.55741283  0.19055940    -0.17860
C3191       C  0.33442299  0.57315376  0.18090131     0.10460
C3192       C  0.32771562  0.59623901  0.16779134    -0.06660
C3193       C  0.30066448  0.60299904  0.16457924    -0.17890
C3194       C  0.28029556  0.58737643  0.17455772     0.10500
S3195       S  0.36859096  0.56303358  0.18639636    -0.32860
S3196       S  0.24609947  0.59780055  0.16989544    -0.32860
H3197       H  0.23473755  0.57310670  0.17144878     0.28510
H3198       H  0.37924528  0.58799801  0.18807138     0.28500
H3199       H  0.31947479  0.54033064  0.20161291     0.19090
H3200       H  0.29537480  0.62032626  0.15388231     0.19100
C3201       C  0.28159567  0.55670201  0.31501455    -0.06730
C3202       C  0.30926371  0.55189431  0.31557972    -0.17860
C3203       C  0.32656331  0.56758811  0.33022085     0.10460
C3204       C  0.31606836  0.58896196  0.34409912    -0.06660
C3205       C  0.28824070  0.59258360  0.34474564    -0.17890
C3206       C  0.27102096  0.57690892  0.33029852     0.10500
S3207       S  0.36166064  0.55928403  0.33049468    -0.32860
S3208       S  0.23557973  0.58404564  0.33012955    -0.32860
H3209       H  0.23597327  0.60345116  0.34917526     0.28510
H3210       H  0.36606441  0.56693406  0.35637421     0.28500
H3211       H  0.31753756  0.53652209  0.30379368     0.19090
H3212       H  0.28003233  0.60871898  0.35546689     0.19100
C3213       C  0.20489934  0.43874975  0.31579086    -0.06730
C3214       C  0.18269431  0.45165270  0.32614904    -0.17860
C3215       C  0.16182607  0.43814455  0.33781755     0.10460
C3216       C  0.16304228  0.41091540  0.33940111    -0.06660
C3217       C  0.18538575  0.39795130  0.32933717    -0.17890
C3218       C  0.20642156  0.41153252  0.31789968     0.10500
S3219       S  0.13321004  0.45668818  0.34827591    -0.32860
S3220       S  0.23472340  0.39298687  0.30656994    -0.32860
H3221       H  0.25373859  0.41238543  0.31111227     0.28510
H3222       H  0.11450952  0.43857090  0.33936090     0.28500
H3223       H  0.18057791  0.47223043  0.32341270     0.19090
H3224       H  0.18673638  0.37713931  0.33088518     0.19100
C3225       C  0.15260057  0.58161833  0.35337074    -0.06730
C3226       C  0.16425657  0.55753070  0.35845872    -0.17860
C3227       C  0.17780238  0.54385530  0.33901348     0.10460
C3228       C  0.17781763  0.55332718  0.31306874    -0.06660
C3229       C  0.16453004  0.57680448  0.30790995    -0.17890
C3230       C  0.15300352  0.59144388  0.32777468     0.10500
S3231       S  0.19749770  0.51664831  0.34972155    -0.32860
S3232       S  0.13968650  0.62266322  0.31899223    -0.32860
H3233       H  0.14996569  0.63581419  0.34057788     0.28510
H3234       H  0.22130909  0.52570202  0.33854713     0.28500
H3235       H  0.16445658  0.55018181  0.37819006     0.19090
H3236       H  0.16459089  0.58473599  0.28842183     0.19100
C3237       C  0.31791520  0.45048593  0.19831192    -0.06730
C3238       C  0.32675923  0.42504594  0.20344784    -0.17860
C3239       C  0.33906784  0.40997712  0.18444267     0.10460
C3240       C  0.34326891  0.42037362  0.15957161    -0.06660
C3241       C  0.33652090  0.44618465  0.15472757    -0.17890
C3242       C  0.32359458  0.46122249  0.17352795     0.10500
S3243       S  0.34884522  0.37753795  0.19307883    -0.32860
S3244       S  0.31394267  0.49331714  0.16387542    -0.32860
H3245       H  0.28657071  0.48700935  0.16279589     0.28510
H3246       H  0.37257826  0.37760426  0.17852189     0.28500
H3247       H  0.32315877  0.41619410  0.22216689     0.19090
H3248       H  0.34025722  0.45434990  0.13569318     0.19100
C3249       C  0.93850822  0.17270019  0.84933012    -0.06730
C3250       C  0.92504221  0.18685169  0.82982246    -0.17860
C3251       C  0.93835290  0.20491381  0.81452720     0.10460
C3252       C  0.96595687  0.20875854  0.81818605    -0.06660
C3253       C  0.97899403  0.19663815  0.83909286    -0.17890
C3254       C  0.96551067  0.17910898  0.85506011     0.10500
S3255       S  0.91940936  0.22148318  0.78967930    -0.32860
S3256       S  0.98465966  0.16442155  0.88089849    -0.32860
H3257       H  0.96628221  0.17198229  0.90014126     0.28510
H3258       H  0.93634229  0.24294835  0.78836188     0.28500
H3259       H  0.90406266  0.18332898  0.82581529     0.19090
H3260       H  0.00029065  0.19957103  0.84196634     0.19100
C3261       C  0.85277164  0.16980640  0.91833824    -0.06730
C3262       C  0.82882524  0.17781237  0.90593984    -0.17860
C3263       C  0.81197076  0.19626930  0.91705497     0.10460
C3264       C  0.81953209  0.20792629  0.94050263    -0.06660
C3265       C  0.84385668  0.20095619  0.95236233    -0.17890
C3266       C  0.86012141  0.18163779  0.94210275     0.10500
S3267       S  0.78156999  0.20499454  0.90024773    -0.32860
S3268       S  0.88897611  0.17254891  0.96126159    -0.32860
H3269       H  0.88039850  0.14689857  0.96412160     0.28510
H3270       H  0.76520291  0.19231088  0.91834335     0.28500
H3271       H  0.82273005  0.16930961  0.88766314     0.19090
H3272       H  0.84939211  0.20942214  0.97086363     0.19100
C3273       C  0.58157027  0.94271547  0.90244812    -0.06730
C3274       C  0.56365558  0.92744829  0.91680245    -0.17860
C3275       C  0.54427839  0.93847291  0.93295405     0.10460
C3276       C  0.54235170  0.96547144  0.93498483    -0.06660
C3277       C  0.55812461  0.98082000  0.91859241    -0.17890
C3278       C  0.57801205  0.96983976  0.90276321     0.10500
S3279       S  0.52364723  0.91716969  0.95188938    -0.32860
S3280       S  0.60009309  0.99168539  0.88623030    -0.32860
H3281       H  0.62363978  0.97914641  0.89471178     0.28510
H3282       H  0.50304062  0.93522444  0.95639010     0.28500
H3283       H  0.56538585  0.90662245  0.91626687     0.19090
H3284       H  0.55715845  0.00163224  0.92038419     0.19100
C3285       C  0.58417551  0.86803722  0.82399761    -0.06730
C3286       C  0.59127653  0.85834226  0.79959636    -0.17860
C3287       C  0.57489517  0.84077516  0.78657964     0.10460
C3288       C  0.54958027  0.83450878  0.79695885    -0.06660
C3289       C  0.54180832  0.84548358  0.82070117    -0.17890
C3290       C  0.55885897  0.86200887  0.83436838     0.10500
S3291       S  0.58944625  0.82422741  0.75929642    -0.32860
S3292       S  0.54746895  0.87441020  0.86512117    -0.32860
H3293       H  0.56133834  0.89784605  0.86335891     0.28510
H3294       H  0.57902629  0.79988686  0.76556405     0.28500
H3295       H  0.61077609  0.86259082  0.79170224     0.19090
H3296       H  0.52268485  0.84040121  0.82911019     0.19100
C3297       C  0.83703584  0.60629853  0.83191103    -0.06730
C3298       C  0.80962268  0.60370980  0.83682983    -0.17860
C3299       C  0.79449492  0.58514923  0.82422888     0.10460
C3300       C  0.80676745  0.56846552  0.80616895    -0.06660
C3301       C  0.83405195  0.57106960  0.80080233    -0.17890
C3302       C  0.84948424  0.58943223  0.81385907     0.10500
S3303       S  0.75923537  0.58460368  0.83102401    -0.32860
S3304       S  0.88500145  0.58893577  0.80781559    -0.32860
H3305       H  0.89215288  0.59067162  0.83422366     0.28510
H3306       H  0.75278269  0.58521595  0.80449219     0.28500
H3307       H  0.79965103  0.61654641  0.85033624     0.19090
H3308       H  0.84358732  0.55802022  0.78721110     0.19100
C3309       C  0.91583060  0.60027812  0.90672010    -0.06730
C3310       C  0.93936523  0.60513169  0.92069841    -0.17860
C3311       C  0.95290200  0.58539402  0.93410151     0.10460
C3312       C  0.94384325  0.55960737  0.93232990    -0.06660
C3313       C  0.92046036  0.55469013  0.91793244    -0.17890
C3314       C  0.90623334  0.57467228  0.90539484     0.10500
S3315       S  0.97993468  0.59509671  0.95504612    -0.32860
S3316       S  0.87658253  0.56593845  0.88737316    -0.32860
H3317       H  0.86184409  0.58843261  0.89247435     0.28510
H3318       H  0.97422622  0.57746382  0.97502469     0.28500
H3319       H  0.94655994  0.62475269  0.92222799     0.19090
H3320       H  0.91290412  0.53517619  0.91688786     0.19100
C3321       C  0.92636226  0.92872372  0.58946902    -0.06730
C3322       C  0.95421977  0.92801784  0.59321518    -0.17860
C3323       C  0.97155760  0.94128553  0.57672745     0.10460
C3324       C  0.96115196  0.95604190  0.55585019    -0.06660
C3325       C  0.93339251  0.95612466  0.55138845    -0.17890
C3326       C  0.91594504  0.94249606  0.56779836     0.10500
S3327       S  0.00694128  0.93872118  0.58341075    -0.32860
S3328       S  0.88079073  0.94307812  0.55974639    -0.32860
H3329       H  0.87616934  0.91734858  0.56709426     0.28510
H3330       H  0.01430195  0.93843777  0.55712816     0.28500
H3331       H  0.96263330  0.91739543  0.60949411     0.19090
H3332       H  0.92520076  0.96732275  0.53540417     0.19100
C3333       C  0.84410785  0.85306332  0.58613538    -0.06730
C3334       C  0.81817591  0.86029678  0.57775362    -0.17860
C3335       C  0.80443916  0.84653626  0.55825947     0.10460
C3336       C  0.81639776  0.82432734  0.54705659    -0.06660
C3337       C  0.84251456  0.81762945  0.55508829    -0.17890
C3338       C  0.85650079  0.83168349  0.57377471     0.10500
S3339       S  0.77205414  0.85868950  0.54844867    -0.32860
S3340       S  0.89032098  0.82097092  0.58024695    -0.32860
H3341       H  0.90127141  0.84565782  0.57663109     0.28510
H3342       H  0.77648967  0.85460953  0.52178515     0.28500
H3343       H  0.80839394  0.87684693  0.58644176     0.19090
H3344       H  0.85239434  0.80085306  0.54694901     0.19100
C3345       C  0.82264149  0.91895974  0.15344590    -0.06730
C3346       C  0.80373141  0.90671326  0.16937667    -0.17860
C3347       C  0.78646870  0.92102129  0.18531647     0.10460
C3348       C  0.78795252  0.94816444  0.18524528    -0.06660
C3349       C  0.80726544  0.96030537  0.16996012    -0.17890
C3350       C  0.82428814  0.94621922  0.15388586     0.10500
S3351       S  0.76141003  0.90388536  0.20337121    -0.32860
S3352       S  0.84569420  0.96465256  0.13278805    -0.32860
H3353       H  0.83944168  0.95042412  0.11036742     0.28510
H3354       H  0.76649732  0.91694363  0.22674774     0.28500
H3355       H  0.80213432  0.88588890  0.16916815     0.19090
H3356       H  0.80805740  0.98117330  0.16943856     0.19100
C3357       C  0.90180312  0.83522912  0.15847388    -0.06730
C3358       C  0.92288761  0.81947995  0.15024832    -0.17860
C3359       C  0.93882292  0.80596964  0.16796930     0.10460
C3360       C  0.93354821  0.80808279  0.19494347    -0.06660
C3361       C  0.91203885  0.82364832  0.20314710    -0.17890
C3362       C  0.89596195  0.83705808  0.18519133     0.10500
S3363       S  0.96670493  0.78833842  0.15443266    -0.32860
S3364       S  0.86946805  0.85729121  0.19767098    -0.32860
H3365       H  0.85301574  0.85661494  0.17549515     0.28510
H3366       H  0.98453882  0.79408926  0.17443972     0.28500
H3367       H  0.92793874  0.81872072  0.12984266     0.19090
H3368       H  0.90798315  0.82567308  0.22371015     0.19100
C3369       C  0.17506017  0.91298129  0.83697700    -0.06730
C3370       C  0.17746869  0.93955331  0.84163856    -0.17860
C3371       C  0.19595026  0.95464166  0.82814595     0.10460
C3372       C  0.21289273  0.94314353  0.80943495    -0.06660
C3373       C  0.21139592  0.91620851  0.80595259    -0.17890
C3374       C  0.19305921  0.90110147  0.81956378     0.10500
S3375       S  0.19498521  0.98864941  0.83409077    -0.32860
S3376       S  0.19438348  0.86675021  0.81433908    -0.32860
H3377       H  0.19052861  0.86038863  0.84064675     0.28510
H3378       H  0.18725255  0.99315021  0.80820545     0.28500
H3379       H  0.16397873  0.94897735  0.85511209     0.19090
H3380       H  0.22462034  0.90664520  0.79234168     0.19100
C3381       C  0.17167132  0.82855630  0.90765184    -0.06730
C3382       C  0.17091604  0.80241121  0.90037802    -0.17860
C3383       C  0.18555584  0.78372767  0.91388734     0.10460
C3384       C  0.20118396  0.79108141  0.93537188    -0.06660
C3385       C  0.20381098  0.81724333  0.94149513    -0.17890
C3386       C  0.18960579  0.83613317  0.92758950     0.10500
S3387       S  0.18204239  0.75057254  0.90396051    -0.32860
S3388       S  0.19513138  0.86925900  0.93648592    -0.32860
H3389       H  0.19435271  0.87842426  0.91073561     0.28510
H3390       H  0.20708798  0.74221636  0.91344176     0.28500
H3391       H  0.15782986  0.79613225  0.88481429     0.19090
H3392       H  0.21605647  0.82288291  0.95794391     0.19100
C3393       C  0.94340796  0.95095313  0.74677925    -0.06730
C3394       C  0.94084931  0.96553554  0.72382810    -0.17860
C3395       C  0.92863875  0.95521070  0.70150840     0.10460
C3396       C  0.91869615  0.92976620  0.70211812    -0.06660
C3397       C  0.92072538  0.91551436  0.72521339    -0.17890
C3398       C  0.93224574  0.92598481  0.74758604     0.10500
S3399       S  0.92752443  0.97492813  0.67263948    -0.32860
S3400       S  0.93099891  0.90690934  0.77686962    -0.32860
H3401       H  0.92762250  0.92807052  0.79362614     0.28510
H3402       H  0.92973416  0.95450439  0.65483037     0.28500
H3403       H  0.94919788  0.98475359  0.72302971     0.19090
H3404       H  0.91257592  0.89620404  0.72603385     0.19100
C3405       C  0.01562625  0.94073988  0.81393940    -0.06730
C3406       C  0.04164557  0.94354442  0.80428767    -0.17860
C3407       C  0.06359355  0.93205107  0.81687496     0.10460
C3408       C  0.05936156  0.91750219  0.83971661    -0.06660
C3409       C  0.03333975  0.91467494  0.84931889    -0.17890
C3410       C  0.01142490  0.92597380  0.83661311     0.10500
S3411       S  0.09626269  0.93705647  0.80284077    -0.32860
S3412       S  0.97869127  0.92089323  0.85035558    -0.32860
H3413       H  0.96427661  0.92320552  0.82699806     0.28510
H3414       H  0.11181040  0.92947704  0.82431374     0.28500
H3415       H  0.04492183  0.95524377  0.78714068     0.19090
H3416       H  0.03000126  0.90301467  0.86649240     0.19100
C3417       C  0.95507116  0.01602284  0.81804464    -0.06730
C3418       C  0.94357448  0.01221188  0.84254879    -0.17860
C3419       C  0.93451316  0.03300950  0.85734939     0.10460
C3420       C  0.93667647  0.05825288  0.84736879    -0.06660
C3421       C  0.94834551  0.06212724  0.82294307    -0.17890
C3422       C  0.95803615  0.04131707  0.80838320     0.10500
S3423       S  0.91807440  0.02594793  0.88761355    -0.32860
S3424       S  0.97389346  0.04827253  0.77777735    -0.32860
H3425       H  0.99156710  0.02706980  0.77807438     0.28510
H3426       H  0.93210758  0.04452660  0.90196623     0.28500
H3427       H  0.94133918  0.99280083  0.85004526     0.19090
H3428       H  0.94974471  0.08148348  0.81511649     0.19100
C3429       C  0.94507410  0.75045062  0.94131428    -0.06730
C3430       C  0.94092628  0.75326983  0.91449411    -0.17860
C3431       C  0.92685377  0.73498852  0.90027541     0.10460
C3432       C  0.91669224  0.71303277  0.91302244    -0.06660
C3433       C  0.92060445  0.71016378  0.93989100    -0.17890
C3434       C  0.93505161  0.72841484  0.95411595     0.10500
S3435       S  0.92157394  0.74164712  0.86620826    -0.32860
S3436       S  0.94081064  0.72195227  0.98813718    -0.32860
H3437       H  0.96551984  0.73473515  0.98965729     0.28510
H3438       H  0.89544345  0.73189845  0.86521029     0.28500
H3439       H  0.94796449  0.77037682  0.90460691     0.19090
H3440       H  0.91304361  0.69321701  0.94970802     0.19100
C3441       C  0.94115134  0.81982539  0.00788633    -0.06730
C3442       C  0.93206654  0.80457772  0.02866585    -0.17860
C3443       C  0.91680267  0.81507013  0.04884649     0.10460
C3444       C  0.91091695  0.84174926  0.04876924    -0.06660
C3445       C  0.92031106  0.85709375  0.02829632    -0.17890
C3446       C  0.93453975  0.84639052  0.00754687     0.10500
S3447       S  0.90592799  0.79318998  0.07393321    -0.32860
S3448       S  0.94157086  0.86734421  0.98045694    -0.32860
H3449       H  0.93708700  0.84855305  0.96127350     0.28510
H3450       H  0.90247621  0.81149114  0.09358249     0.28500
H3451       H  0.93684740  0.78416723  0.02914029     0.19090
H3452       H  0.91538503  0.87748150  0.02784456     0.19100
C3453       C  0.01438052  0.81788400  0.94054169    -0.06730
C3454       C  0.03840727  0.82310561  0.95364809    -0.17860
C3455       C  0.06061554  0.83284265  0.94035074     0.10460
C3456       C  0.05878738  0.83773405  0.91332146    -0.06660
C3457       C  0.03480808  0.83244550  0.90025065    -0.17890
C3458       C  0.01251150  0.82315520  0.91356368     0.10500
S3459       S  0.09099340  0.83766186  0.95876481    -0.32860
S3460       S  0.98188542  0.81974671  0.89515476    -0.32860
H3461       H  0.96460690  0.82575633  0.91581807     0.28510
H3462       H  0.10847542  0.83126541  0.93837385     0.28500
H3463       H  0.04011278  0.81889626  0.97421920     0.19090
H3464       H  0.03300359  0.83677715  0.87970498     0.19100
C3465       C  0.82113912  0.02036658  0.93857505    -0.06730
C3466       C  0.82944404  0.04127354  0.95390734    -0.17860
C3467       C  0.84480739  0.06124699  0.94343470     0.10460
C3468       C  0.85223490  0.06037005  0.91697934    -0.06660
C3469       C  0.84403877  0.03946483  0.90171669    -0.17890
C3470       C  0.82922441  0.01924933  0.91229268     0.10500
S3471       S  0.85325202  0.08774747  0.96452503    -0.32860
S3472       S  0.82282684  0.99192626  0.89158795    -0.32860
H3473       H  0.82531388  0.97332074  0.91138025     0.28510
H3474       H  0.85021838  0.10694807  0.94539499     0.28500
H3475       H  0.82348596  0.04228073  0.97410246     0.19090
H3476       H  0.85011354  0.03839019  0.88155241     0.19100
C3477       C  0.74234293  0.96039851  0.93567509    -0.06730
C3478       C  0.74242908  0.93391411  0.93012360    -0.17860
C3479       C  0.72172425  0.92250474  0.91606718     0.10460
C3480       C  0.69992076  0.93759737  0.90714860    -0.06660
C3481       C  0.69974553  0.96417313  0.91238713    -0.17890
C3482       C  0.72041021  0.97564724  0.92690586     0.10500
S3483       S  0.72534166  0.88887125  0.90841526    -0.32860
S3484       S  0.71684811  0.00940971  0.93455065    -0.32860
H3485       H  0.73015260  0.00798303  0.95864964     0.28510
H3486       H  0.71758835  0.89266171  0.88241441     0.28500
H3487       H  0.75931542  0.92202709  0.93605205     0.19090
H3488       H  0.68300948  0.97592017  0.90580800     0.19100
C3489       C  0.81268598  0.95018518  0.00443130    -0.06730
C3490       C  0.79665683  0.94393809  0.02588784    -0.17860
C3491       C  0.80686605  0.92948824  0.04672903     0.10460
C3492       C  0.83384469  0.92115766  0.04631006    -0.06660
C3493       C  0.84984938  0.92720955  0.02489871    -0.17890
C3494       C  0.83947462  0.94109004  0.00370455     0.10500
S3495       S  0.78455673  0.92282160  0.07336076    -0.32860
S3496       S  0.86000620  0.94512648  0.97512164    -0.32860
H3497       H  0.88318168  0.93284860  0.98482259     0.28510
H3498       H  0.80424116  0.92275305  0.09290331     0.28500
H3499       H  0.77606956  0.95063833  0.02655652     0.19090
H3500       H  0.87032106  0.92019617  0.02446209     0.19100
C3501       C  0.81110453  0.76058279  0.81082775    -0.06730
C3502       C  0.81354352  0.76043956  0.83810191    -0.17860
C3503       C  0.82624971  0.74009637  0.85149562     0.10460
C3504       C  0.83722838  0.71907138  0.83749511    -0.06660
C3505       C  0.83452292  0.71900882  0.81031671    -0.17890
C3506       C  0.82106201  0.73894831  0.79701221     0.10500
S3507       S  0.82861172  0.74288435  0.88635285    -0.32860
S3508       S  0.81577374  0.73455181  0.76267983    -0.32860
H3509       H  0.79088213  0.74738305  0.76193667     0.28510
H3510       H  0.85433851  0.73201554  0.88859295     0.28500
H3511       H  0.80616048  0.77674833  0.84914136     0.19090
H3512       H  0.84219897  0.70276582  0.79934964     0.19100
C3513       C  0.74259219  0.83289275  0.80980301    -0.06730
C3514       C  0.72301407  0.84433888  0.79359057    -0.17860
C3515       C  0.70148906  0.85860852  0.80373499     0.10460
C3516       C  0.69865403  0.86113841  0.83092702    -0.06660
C3517       C  0.71741188  0.84866799  0.84711131    -0.17890
C3518       C  0.73981898  0.83580523  0.83704141     0.10500
S3519       S  0.67780129  0.87206724  0.78090031    -0.32860
S3520       S  0.76512391  0.82590137  0.86017163    -0.32860
H3521       H  0.78690935  0.83243640  0.84427350     0.28510
H3522       H  0.65556467  0.86830788  0.79695311     0.28500
H3523       H  0.72438243  0.84209565  0.77271926     0.19090
H3524       H  0.71537550  0.84998857  0.86797253     0.19100
C3525       C  0.81479085  0.83131579  0.74249726    -0.06730
C3526       C  0.81933484  0.85806353  0.74351299    -0.17860
C3527       C  0.83168674  0.87124433  0.72305406     0.10460
C3528       C  0.84014971  0.85754375  0.70080354    -0.06660
C3529       C  0.83571646  0.83086693  0.69970471    -0.17890
C3530       C  0.82255741  0.81781037  0.71980278     0.10500
S3531       S  0.83707485  0.90532575  0.72717442    -0.32860
S3532       S  0.81481520  0.78439129  0.71430957    -0.32860
H3533       H  0.79011215  0.78511128  0.72731816     0.28510
H3534       H  0.86256146  0.90531741  0.71580691     0.28500
H3535       H  0.81367967  0.86880934  0.76069062     0.19090
H3536       H  0.84182852  0.82020841  0.68260864     0.19100
C3537       C  0.41407672  0.14504408  0.18185581    -0.06730
C3538       C  0.44052839  0.13605691  0.18459742    -0.17860
C3539       C  0.46063982  0.15219658  0.19448372     0.10460
C3540       C  0.45387067  0.17764718  0.20183481    -0.06660
C3541       C  0.42703694  0.18569608  0.20089736    -0.17890
C3542       C  0.40712428  0.16962673  0.19127513     0.10500
S3543       S  0.49444043  0.13971977  0.19554534    -0.32860
S3544       S  0.37330457  0.18194460  0.19026894    -0.32860
H3545       H  0.36147164  0.15795774  0.19536710     0.28510
H3546       H  0.50771899  0.16336548  0.19305085     0.28500
H3547       H  0.44585492  0.11707521  0.17744055     0.19090
H3548       H  0.42168560  0.20509719  0.20685545     0.19100
C3549       C  0.54468509  0.33048829  0.28976570    -0.06730
C3550       C  0.54310372  0.33325893  0.31683814    -0.17860
C3551       C  0.56103004  0.34854224  0.33056386     0.10460
C3552       C  0.58122826  0.36188221  0.31706908    -0.06660
C3553       C  0.58107252  0.36158126  0.28974794    -0.17890
C3554       C  0.56320630  0.34576037  0.27595841     0.10500
S3555       S  0.55732488  0.34937827  0.36540595    -0.32860
S3556       S  0.56688973  0.34389711  0.24132488    -0.32860
H3557       H  0.57008442  0.31695456  0.24173382     0.28510
H3558       H  0.56803836  0.37404962  0.36853321     0.28500
H3559       H  0.52846507  0.32231410  0.32768342     0.19090
H3560       H  0.59623843  0.37210878  0.27919421     0.19100
C3561       C  0.59034808  0.17328968  0.32347407    -0.06730
C3562       C  0.59509821  0.19983132  0.32077624    -0.17860
C3563       C  0.57851886  0.21534601  0.30538059     0.10460
C3564       C  0.55612012  0.20438018  0.29287591    -0.06660
C3565       C  0.55278048  0.17761030  0.29341541    -0.17890
C3566       C  0.56993603  0.16187862  0.30813610     0.10500
S3567       S  0.58644434  0.24918476  0.30310794    -0.32860
S3568       S  0.56444605  0.12761050  0.30646586    -0.32860
H3569       H  0.59190506  0.12128519  0.30607182     0.28510
H3570       H  0.57437713  0.25301738  0.27863701     0.28500
H3571       H  0.61123727  0.20886895  0.33147240     0.19090
H3572       H  0.53591134  0.16902297  0.28339747     0.19100
C3573       C  0.55345513  0.30520642  0.17032355    -0.06730
C3574       C  0.57782589  0.31420221  0.18012165    -0.17860
C3575       C  0.59133854  0.33441343  0.16819592     0.10460
C3576       C  0.57985611  0.34665050  0.14606512    -0.06660
C3577       C  0.55623093  0.33644582  0.13539134    -0.17890
C3578       C  0.54294495  0.31601016  0.14717121     0.10500
S3579       S  0.62293076  0.34322387  0.18258861    -0.32860
S3580       S  0.51202877  0.30584362  0.13223704    -0.32860
H3581       H  0.49761996  0.30533231  0.15550175     0.28510
H3582       H  0.63710900  0.33960592  0.15927591     0.28500
H3583       H  0.58636677  0.30546283  0.19743348     0.19090
H3584       H  0.54745490  0.34486340  0.11803523     0.19100
C3585       C  0.44981212  0.30734830  0.19108109    -0.06730
C3586       C  0.42503571  0.29780440  0.18277457    -0.17860
C3587       C  0.40775549  0.31254555  0.16719627     0.10460
C3588       C  0.41592174  0.33725913  0.15833887    -0.06660
C3589       C  0.43994561  0.34741686  0.16830730    -0.17890
C3590       C  0.45660704  0.33301595  0.18486992     0.10500
S3591       S  0.37637009  0.29777969  0.15865423    -0.32860
S3592       S  0.48773699  0.34739426  0.19487011    -0.32860
H3593       H  0.48372392  0.34199221  0.22134354     0.28510
H3594       H  0.36107750  0.31888156  0.16749000     0.28500
H3595       H  0.41952230  0.27821399  0.18770282     0.19090
H3596       H  0.44635157  0.36650186  0.16257061     0.19100
C3597       C  0.42509080  0.16292951  0.34193128    -0.06730
C3598       C  0.41665286  0.18869273  0.34395498    -0.17860
C3599       C  0.42872656  0.20810652  0.32924157     0.10460
C3600       C  0.44951274  0.20149704  0.31194842    -0.06660
C3601       C  0.45865043  0.17587011  0.31089545    -0.17890
C3602       C  0.44720763  0.15671842  0.32618261     0.10500
S3603       S  0.41605713  0.24052503  0.33269221    -0.32860
S3604       S  0.46225295  0.12505288  0.32498350    -0.32860
H3605       H  0.45517168  0.11751910  0.35021661     0.28510
H3606       H  0.41983375  0.24754126  0.30657319     0.28500
H3607       H  0.40027359  0.19368998  0.35670195     0.19090
H3608       H  0.47547196  0.17085172  0.29859298     0.19100
C3609       C  0.54609566  0.43601079  0.44193992    -0.06730
C3610       C  0.57317699  0.43734106  0.44896196    -0.17860
C3611       C  0.59310519  0.43081537  0.43110597     0.10460
C3612       C  0.58558911  0.42302221  0.40593662    -0.06660
C3613       C  0.55855710  0.42094680  0.39920414    -0.17890
C3614       C  0.53872593  0.42691158  0.41716292     0.10500
S3615       S  0.62802032  0.43403971  0.43984460    -0.32860
S3616       S  0.50423893  0.42383163  0.40712916    -0.32860
H3617       H  0.49378310  0.42170720  0.43237687     0.28510
H3618       H  0.62386798  0.44316203  0.46523676     0.28500
H3619       H  0.57865054  0.44534755  0.46766007     0.19090
H3620       H  0.55284399  0.41456698  0.37995593     0.19100
C3621       C  0.41840873  0.58938596  0.59242984    -0.06730
C3622       C  0.42119147  0.59511067  0.56580271    -0.17860
C3623       C  0.44149833  0.58399703  0.55087900     0.10460
C3624       C  0.45879967  0.56564923  0.56240530    -0.06660
C3625       C  0.45704866  0.56125650  0.58937173    -0.17890
C3626       C  0.43750639  0.57314234  0.60449584     0.10500
S3627       S  0.44351335  0.59350888  0.51732748    -0.32860
S3628       S  0.43867669  0.56712990  0.63899282    -0.32860
H3629       H  0.43491786  0.59318744  0.64574912     0.28510
H3630       H  0.47112291  0.59865201  0.51862107     0.28500
H3631       H  0.40731413  0.60829524  0.55635781     0.19090
H3632       H  0.47085096  0.54799336  0.59883172     0.19100
C3633       C  0.43082156  0.55047626  0.44440452    -0.06730
C3634       C  0.41320313  0.56563124  0.45921875    -0.17860
C3635       C  0.39636283  0.58401855  0.44743591     0.10460
C3636       C  0.39707301  0.58729753  0.42013089    -0.06660
C3637       C  0.41340576  0.57088197  0.40540375    -0.17890
C3638       C  0.43065878  0.55326003  0.41700889     0.10500
S3639       S  0.37575088  0.60339328  0.46840324    -0.32860
S3640       S  0.45364036  0.53710840  0.39537991    -0.32860
H3641       H  0.47640060  0.54443832  0.40964515     0.28510
H3642       H  0.35185314  0.59602251  0.45595365     0.28500
H3643       H  0.41273637  0.56332444  0.48011127     0.19090
H3644       H  0.41393714  0.57268207  0.38442758     0.19100
C3645       C  0.46567848  0.43849559  0.55522650    -0.06730
C3646       C  0.47727949  0.42046624  0.57219803    -0.17860
C3647       C  0.46161838  0.40573939  0.58904178     0.10460
C3648       C  0.43330058  0.40869652  0.58876351    -0.06660
C3649       C  0.42171589  0.42581331  0.57062525    -0.17890
C3650       C  0.43754880  0.44059177  0.55387901     0.10500
S3651       S  0.47956708  0.38551165  0.61181462    -0.32860
S3652       S  0.42087337  0.46317440  0.53258703    -0.32860
H3653       H  0.43954639  0.46083729  0.51240581     0.28510
H3654       H  0.46572487  0.39460808  0.63370962     0.28500
H3655       H  0.49892380  0.41913977  0.57361853     0.19090
H3656       H  0.40014820  0.42815587  0.56984025     0.19100
C3657       C  0.54075662  0.55828815  0.44705482    -0.06730
C3658       C  0.56740356  0.54981126  0.44497926    -0.17860
C3659       C  0.58599751  0.56291919  0.42945572     0.10460
C3660       C  0.57762327  0.58460710  0.41456196    -0.06660
C3661       C  0.55109847  0.59363072  0.41779882    -0.17890
C3662       C  0.53280513  0.58090589  0.43386464     0.10500
S3663       S  0.61984780  0.55072139  0.42959191    -0.32860
S3664       S  0.49904233  0.59347923  0.43526534    -0.32860
H3665       H  0.49293620  0.58359677  0.45995471     0.28510
H3666       H  0.63142305  0.57530198  0.43179517     0.28500
H3667       H  0.57359293  0.53232954  0.45496090     0.19090
H3668       H  0.54407913  0.61033623  0.40704368     0.19100
C3669       C  0.57141223  0.44882785  0.55901010    -0.06730
C3670       C  0.58796174  0.43297790  0.54371338    -0.17860
C3671       C  0.60257588  0.41245597  0.55476011     0.10460
C3672       C  0.60031163  0.40762262  0.58169871    -0.06660
C3673       C  0.58527739  0.42449872  0.59708056    -0.17890
C3674       C  0.57066152  0.44466616  0.58624178     0.10500
S3675       S  0.62256863  0.39200923  0.53399927    -0.32860
S3676       S  0.54961921  0.46239171  0.60842406    -0.32860
H3677       H  0.52595113  0.45598732  0.59509550     0.28510
H3678       H  0.61779265  0.40543113  0.51064543     0.28500
H3679       H  0.58871586  0.43618053  0.52294191     0.19090
H3680       H  0.58402483  0.42136637  0.61787531     0.19100
loop_ 
_geom_bond_atom_site_label_1 
_geom_bond_atom_site_label_2 
_geom_bond_distance 
_geom_bond_site_symmetry_2 
_ccdc_geom_bond_type 
O1           Ni7   1.903       .  S
O1           C22   1.269       .  A
O2          Ni25   1.904       .  S
O2           C11   1.269       .  A
O3           Ni7   1.873       .  S
O3          Ni25   1.887       .  S
O3          Ni19   1.908       .  S
O3           H26   0.966       .  S
C4           O21   1.279       .  A
C4           O13   1.271       .  A
C4         C3633   1.477       .  S
O5          Ni24   1.898       .  S
O5           C11   1.266       .  A
O6          Ni24   1.908       .  S
O6            C8   1.268       .  A
Ni7          O10   1.907       .  S
Ni7          O12   1.905       .  S
C8           O18   1.277       .  A
C8         C3657   1.477       .  S
O9          Ni25   1.922       .  S
O9           C15   1.279       .  A
O10          C15   1.274       .  A
C11        C3609   1.450       .  S
O12          C14   1.267       .  A
O13         Ni24   1.899       .  S
C14          O20   1.273       .  A
C14        C3645   1.473       .  S
C15        C3669   1.478       .  S
H16          O17   0.966       .  S
O17         Ni25   1.911       .  S
O17         Ni19   1.894       .  S
O17         Ni24   1.876       .  S
O18         Ni19   1.943       .  S
Ni19         O23   1.914       .  S
Ni19         O21   1.930       .  S
O20         Ni25   1.936       .  S
C22          O23   1.273       .  A
C22        C3624   1.479       .  S
O27         Ni33   1.925       .  S
O27          C48   1.271       .  A
O28         Ni51   1.924       .  S
O28          C37   1.270       .  A
O29         Ni33   1.899       .  S
O29         Ni51   1.903       .  S
O29         Ni45   1.903       .  S
O29          H52   0.966       .  S
C30          O47   1.272       .  A
C30          O39   1.274       .  A
C30        C3600   1.470       .  S
O31         Ni50   1.912       .  S
O31          C37   1.268       .  A
O32         Ni50   1.894       .  S
O32          C34   1.266       .  A
Ni33         O36   1.923       .  S
Ni33         O38   1.899       .  S
C34          O44   1.273       .  A
C34        C3564   1.469       .  S
O35         Ni51   1.900       .  S
O35          C41   1.275       .  A
O36          C41   1.276       .  A
C37        C3549   1.482       .  S
O38          C40   1.268       .  A
O39         Ni50   1.919       .  S
C40          O46   1.273       .  A
C40        C3585   1.478       .  S
C41        C3573   1.468       .  S
H42          O43   0.966       .  S
O43         Ni51   1.915       .  S
O43         Ni45   1.904       .  S
O43         Ni50   1.900       .  S
O44         Ni45   1.928       .  S
Ni45         O49   1.905       .  S
Ni45         O47   1.905       .  S
O46         Ni51   1.933       .  S
C48          O49   1.266       .  A
C48        C3540   1.467       .  S
C53        C3501   1.504       .  S
C53          C54   1.413       .  A
C53          C58   1.411       .  A
C54          C55   1.411       .  A
C54          H59   1.083       .  S
C55        C3525   1.498       .  S
C55          C56   1.405       .  A
C56          C57   1.405       .  A
C56          H60   1.083       .  S
C57        C3513   1.501       .  S
C57          C58   1.411       .  A
C58          H61   1.083       .  S
C62        C3477   1.491       .  S
C62          C63   1.407       .  A
C62          C67   1.407       .  A
C63          C64   1.404       .  A
C63          H68   1.084       .  S
C64        C3489   1.487   1_556  S
C64          C65   1.403       .  A
C65          C66   1.402       .  A
C65          H69   1.084       .  S
C66        C3465   1.485   1_565  S
C66          C67   1.407       .  A
C67          H70   1.083   1_565  S
C71        C3453   1.483   1_655  S
C71          C72   1.407       .  A
C71          C76   1.399       .  A
C72          C73   1.412       .  A
C72          H77   1.083       .  S
C73        C3441   1.488   1_556  S
C73          C74   1.404       .  A
C74          C75   1.399       .  A
C74          H78   1.084       .  S
C75        C3429   1.477       .  S
C75          C76   1.399       .  A
C76          H79   1.084       .  S
C80        C3393   1.487       .  S
C80          C81   1.408       .  A
C80          C85   1.409       .  A
C81          C82   1.406       .  A
C81          H86   1.084       .  S
C82        C3417   1.473   1_565  S
C82          C83   1.397       .  A
C83          C84   1.395       .  A
C83          H87   1.085       .  S
C84        C3405   1.472   1_655  S
C84          C85   1.402       .  A
C85          H88   1.084       .  S
O89         Ni97   1.903       .  S
O89          C99   1.276       .  A
O90         Ni97   1.901       .  S
O90         C100   1.278       .  A
O91         Ni97   1.931       .  S
O91         C101   1.285       .  A
O92         Ni97   1.924       .  S
O92         C102   1.284       .  A
O93         Ni98   1.907       .  S
O93         C102   1.279       .  A
O94         Ni98   1.905       .  S
O94         C101   1.277       .  A
O95         Ni98   1.923       .  S
O95         C100   1.283       .  A
O96         Ni98   1.928       .  S
O96          C99   1.284       .  A
Ni97        Ni98   2.388       .  S
C99        C3408   1.465       .  S
C100       C3381   1.483       .  S
C101       C3456   1.476       .  S
C102       C3369   1.483       .  S
O103       Ni111   1.918       .  S
O103        C113   1.281       .  A
O104       Ni111   1.917       .  S
O104        C114   1.280       .  A
O105       Ni111   1.921       .  S
O105        C115   1.283       .  A
O106       Ni111   1.927       .  S
O106        C116   1.284       .  A
O107       Ni112   1.908       .  S
O107        C116   1.279       .  A
O108       Ni112   1.907       .  S
O108        C115   1.279       .  A
O109       Ni112   1.914       .  S
O109        C114   1.280       .  A
O110       Ni112   1.915       .  S
O110        C113   1.281       .  A
Ni111      Ni112   2.391       .  S
C113       C3492   1.472       .  S
C114       C3357   1.465       .  S
C115       C3345   1.480       .  S
C116       C3444   1.475       .  S
O117       Ni125   1.916       .  S
O117        C127   1.280       .  A
O118       Ni125   1.921       .  S
O118        C128   1.282       .  A
O119       Ni125   1.914       .  S
O119        C129   1.280       .  A
O120       Ni125   1.912       .  S
O120        C130   1.280       .  A
O121       Ni126   1.935       .  S
O121        C130   1.285       .  A
O122       Ni126   1.931       .  S
O122        C129   1.283       .  A
O123       Ni126   1.929       .  S
O123        C128   1.283       .  A
O124       Ni126   1.933       .  S
O124        C127   1.285       .  A
Ni125      Ni126   2.384       .  S
C127       C3528   1.485       .  S
C128       C3321   1.490       .  S
C129       C3396   1.478       .  S
C130       C3333   1.501       .  S
O131       Ni139   1.911       .  S
O131        C141   1.280       .  A
O132       Ni139   1.907       .  S
O132        C142   1.282       .  A
O133       Ni139   1.925       .  S
O133        C143   1.282       .  A
O134       Ni139   1.931       .  S
O134        C144   1.283       .  A
O135       Ni140   1.929       .  S
O135        C144   1.284       .  A
O136       Ni140   1.929       .  S
O136        C143   1.283       .  A
O137       Ni140   1.904       .  S
O137        C142   1.277       .  A
O138       Ni140   1.908       .  S
O138        C141   1.279       .  A
Ni139      Ni140   2.388       .  S
C141       C3432   1.467       .  S
C142       C3297   1.475       .  S
C143       C3309   1.482       .  S
C144       C3504   1.493       .  S
O145       Ni153   1.915       .  S
O145        C155   1.280       .  A
O146       Ni153   1.909       .  S
O146        C156   1.280       .  A
O147       Ni153   1.918       .  S
O147        C157   1.281       .  A
O148       Ni153   1.921       .  S
O148        C158   1.282       .  A
O149       Ni154   1.926       .  S
O149        C158   1.282       .  A
O150       Ni154   1.919       .  S
O150        C157   1.280       .  A
O151       Ni154   1.937       .  S
O151        C156   1.285       .  A
O152       Ni154   1.938       .  S
O152        C155   1.286       .  A
Ni153      Ni154   2.386       .  S
C155       C3516   1.491       .  S
C156       C3273   1.492       .  S
C157       C3285   1.473       .  S
C158       C3480   1.483       .  S
O159       Ni167   1.921       .  S
O159        C169   1.282       .  A
O160       Ni167   1.921       .  S
O160        C170   1.280       .  A
O161       Ni167   1.912       .  S
O161        C171   1.280       .  A
O162       Ni167   1.921       .  S
O162        C172   1.282       .  A
O163       Ni168   1.905       .  S
O163        C172   1.277       .  A
O164       Ni168   1.900       .  S
O164        C171   1.279       .  A
O165       Ni168   1.913       .  S
O165        C170   1.282       .  A
O166       Ni168   1.915       .  S
O166        C169   1.281       .  A
Ni167      Ni168   2.385       .  S
C169       C3468   1.477       .  S
C170       C3249   1.492       .  S
C171       C3261   1.483       .  S
C172       C3420   1.467       .  S
O173       Ni179   1.915       .  S
O173        C194   1.269       .  A
O174       Ni197   1.911       .  S
O174        C183   1.272       .  A
O175       Ni179   1.890       .  S
O175       Ni197   1.892       .  S
O175       Ni191   1.909       .  S
O175        H198   0.966       .  S
C176        O193   1.274       .  A
C176        O185   1.276       .  A
C176       C3228   1.492       .  S
O177       Ni196   1.921       .  S
O177        C183   1.270       .  A
O178       Ni196   1.894       .  S
O178        C180   1.268       .  A
Ni179       O182   1.908       .  S
Ni179       O184   1.905       .  S
C180        O190   1.282       .  A
C180       C3201   1.478       .  S
O181       Ni197   1.931       .  S
O181        C187   1.278       .  A
O182        C187   1.276       .  A
C183       C3189   1.472       .  S
O184        C186   1.269       .  A
O185       Ni196   1.922       .  S
C186        O192   1.280       .  A
C186       C3180   1.485       .  S
C187       C3237   1.495       .  S
H188        O189   0.966       .  S
O189       Ni197   1.927       .  S
O189       Ni191   1.909       .  S
O189       Ni196   1.902       .  S
O190       Ni191   1.959       .  S
Ni191       O195   1.915       .  S
Ni191       O193   1.919       .  S
O192       Ni197   1.953       .  S
C194        O195   1.274       .  A
C194       C3213   1.477       .  S
O199       Ni205   1.910       .  S
O199        C220   1.267       .  A
O200       Ni223   1.923       .  S
O200        C209   1.271       .  A
O201       Ni205   1.907       .  S
O201       Ni223   1.931       .  S
O201       Ni217   1.938       .  S
O201        H224   0.966       .  S
C202        O219   1.272       .  A
C202        O211   1.271       .  A
C202       C3129   1.477       .  S
O203       Ni222   1.909       .  S
O203        C209   1.266       .  A
O204       Ni222   1.888       .  S
O204        C206   1.262       .  A
Ni205       O208   1.941       .  S
Ni205       O210   1.874       .  S
C206        O216   1.274       .  A
C206       C3120   1.457       .  S
O207       Ni223   1.906       .  S
O207        C213   1.264       .  A
O208        C213   1.269       .  A
C209       C3153   1.480       .  S
O210        C212   1.259       .  A
O211       Ni222   1.930       .  S
C212        O218   1.287       .  A
C212       C3141   1.495       .  S
C213       C3108   1.472       .  S
H214        O215   0.966       .  S
O215       Ni223   1.912       .  S
O215       Ni217   1.918       .  S
O215       Ni222   1.915       .  S
O216       Ni217   1.944       .  S
Ni217       O221   1.922       .  S
Ni217       O219   1.916       .  S
O218       Ni223   1.993       .  S
C220        O221   1.269       .  A
C220       C3168   1.498       .  S
O225       Ni231   1.918       .  S
O225        C246   1.268       .  A
O226       Ni249   1.909       .  S
O226        C235   1.270       .  A
O227       Ni231   1.901       .  S
O227       Ni249   1.901       .  S
O227       Ni243   1.917       .  S
O227        H250   0.966       .  S
C228        O245   1.276       .  A
C228        O237   1.273       .  A
C228       C3069   1.488       .  S
O229       Ni248   1.924       .  S
O229        C235   1.270       .  A
O230       Ni248   1.902       .  S
O230        C232   1.268       .  A
Ni231       O234   1.923       .  S
Ni231       O236   1.890       .  S
C232        O242   1.273       .  A
C232       C3081   1.469       .  S
O233       Ni249   1.906       .  S
O233        C239   1.269       .  A
O234        C239   1.277       .  A
C235       C3288   1.475       .  S
O236        C238   1.266       .  A
O237       Ni248   1.918       .  S
C238        O244   1.278       .  A
C238       C3057   1.471       .  S
C239       C3093   1.489       .  S
H240        O241   0.966       .  S
O241       Ni249   1.907       .  S
O241       Ni243   1.910       .  S
O241       Ni248   1.900       .  S
O242       Ni243   1.935       .  S
Ni243       O247   1.916       .  S
Ni243       O245   1.914       .  S
O244       Ni249   1.944       .  S
C246        O247   1.270       .  A
C246       C3045   1.488       .  S
O251       Ni257   1.923       .  S
O251        C272   1.269       .  A
O252       Ni275   1.917       .  S
O252        C261   1.274       .  A
O253       Ni257   1.897       .  S
O253       Ni275   1.905   1_554  S
O253       Ni269   1.902       .  S
O253        H276   0.965       .  S
C254        O271   1.270       .  A
C254        O263   1.277       .  A
C254       C3033   1.477       .  S
O255       Ni274   1.923       .  S
O255        C261   1.271       .  A
O256       Ni274   1.888   1_554  S
O256        C258   1.265       .  A
Ni257       O260   1.906   1_554  S
Ni257       O262   1.903   1_554  S
C258        O268   1.277       .  A
C258       C3021   1.466       .  S
O259       Ni275   1.933       .  S
O259        C265   1.280       .  A
O260        C265   1.274       .  A
C261       C3009   1.490       .  S
O262        C264   1.268       .  A
O263       Ni274   1.933   1_554  S
C264        O270   1.271       .  A
C264       C3384   1.460       .  S
C265       C3000   1.481       .  S
H266        O267   0.966       .  S
O267       Ni275   1.914       .  S
O267       Ni269   1.905   1_556  S
O267       Ni274   1.893       .  S
O268       Ni269   1.947       .  S
Ni269       O273   1.910       .  S
Ni269       O271   1.897       .  S
O270       Ni275   1.924       .  S
C272        O273   1.268       .  A
C272       C2985   1.476       .  S
O277       Ni283   1.920       .  S
O277        C298   1.273       .  A
O278       Ni301   1.913   1_655  S
O278        C287   1.269       .  A
O279       Ni283   1.901       .  S
O279       Ni301   1.898   1_554  S
O279       Ni295   1.905       .  S
O279        H302   0.966       .  S
C280        O297   1.268       .  A
C280        O289   1.273       .  A
C280       C2973   1.467       .  S
O281       Ni300   1.936       .  S
O281        C287   1.270       .  A
O282       Ni300   1.888   1_554  S
O282        C284   1.270       .  A
Ni283       O286   1.922   1_554  S
Ni283       O288   1.895   1_554  S
C284        O294   1.280       .  A
C284       C2949   1.494       .  S
O285       Ni301   1.881       .  S
O285        C291   1.266       .  A
O286        C291   1.274       .  A
C287       C3312   1.489       .  S
O288        C290   1.268       .  A
O289       Ni300   1.923   1_554  S
C290        O296   1.279       .  A
C290       C2961   1.480       .  S
C291       C2937   1.473       .  S
H292        O293   0.966       .  S
O293       Ni301   1.910   1_655  S
O293       Ni295   1.919   1_656  S
O293       Ni300   1.912       .  S
O294       Ni295   1.955   1_655  S
Ni295       O299   1.924       .  S
Ni295       O297   1.897   1_455  S
O296       Ni301   1.952       .  S
C298        O299   1.274       .  A
C298       C2925   1.500       .  S
O303       Ni309   1.924       .  S
O303        C324   1.274       .  A
O304       Ni327   1.923       .  S
O304        C313   1.277       .  A
O305       Ni309   1.889       .  S
O305       Ni327   1.901   1_565  S
O305       Ni321   1.926   1_565  S
O305        H328   0.966       .  S
C306        O323   1.284       .  A
C306        O315   1.272       .  A
C306       C2868   1.484       .  S
O307       Ni326   1.910       .  S
O307        C313   1.267       .  A
O308       Ni326   1.906       .  S
O308        C310   1.268       .  A
Ni309       O312   1.931       .  S
Ni309       O314   1.889       .  S
C310        O320   1.275       .  A
C310       C2916   1.473       .  S
O311       Ni327   1.908   1_565  S
O311        C317   1.270       .  A
O312        C317   1.278       .  A
C313       C2889   1.478       .  S
O314        C316   1.266       .  A
O315       Ni326   1.905       .  S
C316        O322   1.284       .  A
C316       C2877   1.477       .  S
C317       C2901   1.481       .  S
H318        O319   0.966       .  S
O319       Ni327   1.907       .  S
O319       Ni321   1.897       .  S
O319       Ni326   1.884       .  S
O320       Ni321   1.937       .  S
Ni321       O325   1.921   1_545  S
Ni321       O323   1.947       .  S
O322       Ni327   1.961   1_565  S
C324        O325   1.276       .  A
C324       C3372   1.496       .  S
O329       Ni335   1.923       .  S
O329        C350   1.271       .  A
O330       Ni353   1.902       .  S
O330        C339   1.269       .  A
O331       Ni335   1.891       .  S
O331       Ni353   1.891       .  S
O331       Ni347   1.911       .  S
O331        H354   0.971       .  S
C332        O349   1.275       .  A
C332        O341   1.277       .  A
C332       C3336   1.501       .  S
O333       Ni352   1.918       .  S
O333        C339   1.272       .  A
O334       Ni352   1.894       .  S
O334        C336   1.266       .  A
Ni335       O338   1.914       .  S
Ni335       O340   1.905       .  S
C336        O346   1.271       .  A
C336       C2853   1.459       .  S
O337       Ni353   1.944       .  S
O337        C343   1.283       .  A
O338        C343   1.273       .  A
C339       C2805   1.469       .  S
O340        C342   1.268       .  A
O341       Ni352   1.926       .  S
C342        O348   1.271       .  A
C342       C2817   1.461       .  S
C343       C2841   1.499       .  S
H344        O345   0.966       .  S
O345       Ni353   1.926       .  S
O345       Ni347   1.904       .  S
O345       Ni352   1.894       .  S
O346       Ni347   1.931       .  S
Ni347       O351   1.891       .  S
Ni347       O349   1.924       .  S
O348       Ni353   1.924       .  S
C350        O351   1.264       .  A
C350       C2829   1.464       .  S
O355       Ni361   1.923   1_455  S
O355        C376   1.271       .  A
O356       Ni379   1.929       .  S
O356        C365   1.278       .  A
O357       Ni361   1.888       .  S
O357       Ni379   1.899       .  S
O357       Ni373   1.915   1_655  S
O357        H380   0.966       .  S
C358        O375   1.276       .  A
C358        O367   1.275       .  A
C358       C2793   1.492       .  S
O359       Ni378   1.908   1_655  S
O359        C365   1.268       .  A
O360       Ni378   1.898   1_655  S
O360        C362   1.267       .  A
Ni361       O364   1.925       .  S
Ni361       O366   1.892   1_655  S
C362        O372   1.276       .  A
C362       C2757   1.468       .  S
O363       Ni379   1.916       .  S
O363        C369   1.275       .  A
O364        C369   1.277       .  A
C365       C2769   1.485       .  S
O366        C368   1.269       .  A
O367       Ni378   1.907       .  S
C368        O374   1.283       .  A
C368       C2745   1.478       .  S
C369       C3360   1.478       .  S
H370        O371   0.966       .  S
O371       Ni379   1.914   1_455  S
O371       Ni373   1.898       .  S
O371       Ni378   1.885       .  S
O372       Ni373   1.938   1_655  S
Ni373       O377   1.905       .  S
Ni373       O375   1.929       .  S
O374       Ni379   1.956   1_455  S
C376        O377   1.271       .  A
C376       C2781   1.467       .  S
O381       Ni387   1.921       .  S
O381        C402   1.269       .  A
O382       Ni405   1.934       .  S
O382        C391   1.273       .  A
O383       Ni387   1.904   1_545  S
O383       Ni405   1.923   1_554  S
O383       Ni399   1.921   1_545  S
O383        H406   0.966       .  S
C384        O401   1.274       .  A
C384        O393   1.275       .  A
C384       C2721   1.472       .  S
O385       Ni404   1.917       .  S
O385        C391   1.267       .  A
O386       Ni404   1.897   1_554  S
O386        C388   1.266       .  A
Ni387       O390   1.927   1_564  S
Ni387       O392   1.898   1_554  S
C388        O398   1.277       .  A
C388       C2685   1.473       .  S
O389       Ni405   1.906       .  S
O389        C395   1.274       .  A
O390        C395   1.273       .  A
C391       C2736   1.497       .  S
O392        C394   1.266       .  A
O393       Ni404   1.911   1_564  S
C394        O400   1.278       .  A
C394       C3276   1.476       .  S
C395       C2697   1.481       .  S
H396        O397   0.966       .  S
O397       Ni405   1.908   1_565  S
O397       Ni399   1.906   1_556  S
O397       Ni404   1.901   1_565  S
O398       Ni399   1.945   1_545  S
Ni399       O403   1.916       .  S
Ni399       O401   1.913       .  S
O400       Ni405   1.961   1_565  S
C402        O403   1.272       .  A
C402       C2709   1.477       .  S
C407       C2664   1.486       .  S
C407        C408   1.404       .  A
C407        C412   1.403       .  A
C408        C409   1.402       .  A
C408        H413   1.084       .  S
C409       C2673   1.476       .  S
C409        C410   1.400       .  A
C410        C411   1.402       .  A
C410        H414   1.083       .  S
C411       C2649   1.488       .  S
C411        C412   1.406       .  A
C412        H415   1.082       .  S
O416       Ni424   1.922       .  S
O416        C426   1.282       .  A
O417       Ni424   1.918       .  S
O417        C427   1.282       .  A
O418       Ni424   1.920       .  S
O418        C428   1.280       .  A
O419       Ni424   1.921       .  S
O419        C429   1.282       .  A
O420       Ni425   1.910       .  S
O420        C429   1.279       .  A
O421       Ni425   1.894       .  S
O421        C428   1.280       .  A
O422       Ni425   1.926       .  S
O422        C427   1.282       .  A
O423       Ni425   1.923       .  S
O423        C426   1.281       .  A
Ni424      Ni425   2.388       .  S
C426       C2637   1.477       .  S
C427       C3204   1.487       .  S
C428       C3636   1.480       .  S
C429       C2661   1.471       .  S
C430       C2601   1.472       .  S
C430        C431   1.396       .  A
C430        C435   1.405       .  A
C431        C432   1.397       .  A
C431        H436   1.085       .  S
C432       C2613   1.478       .  S
C432        C433   1.401       .  A
C433        C434   1.409       .  A
C433        H437   1.083       .  S
C434       C2628   1.495   1_565  S
C434        C435   1.409       .  A
C435        H438   1.083       .  S
O439       Ni447   1.924       .  S
O439        C449   1.282       .  A
O440       Ni447   1.920       .  S
O440        C450   1.283       .  A
O441       Ni447   1.924       .  S
O441        C451   1.283       .  A
O442       Ni447   1.920       .  S
O442        C452   1.280       .  A
O443       Ni448   1.913       .  S
O443        C452   1.281       .  A
O444       Ni448   1.919       .  S
O444        C451   1.281       .  A
O445       Ni448   1.902       .  S
O445        C450   1.278       .  A
O446       Ni448   1.908       .  S
O446        C449   1.278       .  A
Ni447      Ni448   2.391       .  S
C449       C2604   1.468       .  S
C450       C2820   1.477       .  S
C451       C2589   1.481       .  S
C452       C2580   1.467       .  S
O453       Ni461   1.908       .  S
O453        C463   1.279       .  A
O454       Ni461   1.902       .  S
O454        C464   1.279       .  A
O455       Ni461   1.912       .  S
O455        C465   1.280       .  A
O456       Ni461   1.912       .  S
O456        C466   1.280       .  A
O457       Ni462   1.911       .  S
O457        C466   1.278       .  A
O458       Ni462   1.915       .  S
O458        C465   1.280       .  A
O459       Ni462   1.920       .  S
O459        C464   1.281       .  A
O460       Ni462   1.917       .  S
O460        C463   1.281       .  A
Ni461      Ni462   2.389       .  S
C463       C2676   1.468       .  S
C464       C2724   1.488       .  S
C465       C2616   1.469       .  S
C466       C3036   1.465       .  S
C467       C2565   1.490       .  S
C467        C468   1.408       .  A
C467        C472   1.405       .  A
C468        C469   1.408       .  A
C468        H473   1.083       .  S
C469       C2553   1.486   1_565  S
C469        C470   1.405       .  A
C470        C471   1.401       .  A
C470        H474   1.084       .  S
C471       C2541   1.483       .  S
C471        C472   1.402       .  A
C472        H475   1.084       .  S
C476       C2592   1.492       .  S
C476        C477   1.407       .  A
C476        C481   1.409       .  A
C477        C478   1.402       .  A
C477        H482   1.084       .  S
C478       C2640   1.486       .  S
C478        C479   1.405       .  A
C479        C480   1.410       .  A
C479        H483   1.083       .  S
C480       C2529   1.500       .  S
C480        C481   1.410       .  A
C481        H484   1.084       .  S
O485       Ni493   1.919       .  S
O485        C495   1.281       .  A
O486       Ni493   1.909       .  S
O486        C496   1.282       .  A
O487       Ni493   1.928       .  S
O487        C497   1.283       .  A
O488       Ni493   1.918       .  S
O488        C498   1.279       .  A
O489       Ni494   1.921       .  S
O489        C498   1.282       .  A
O490       Ni494   1.922       .  S
O490        C497   1.283       .  A
O491       Ni494   1.916       .  S
O491        C496   1.279       .  A
O492       Ni494   1.918       .  S
O492        C495   1.281       .  A
Ni493      Ni494   2.390       .  S
C495       C2544   1.473       .  S
C496       C3060   1.476       .  S
C497       C2532   1.486       .  S
C498       C2904   1.470       .  S
O499       Ni507   1.931       .  S
O499        C509   1.284       .  A
O500       Ni507   1.932       .  S
O500        C510   1.286       .  A
O501       Ni507   1.913       .  S
O501        C511   1.280       .  A
O502       Ni507   1.913       .  S
O502        C512   1.278       .  A
O503       Ni508   1.920       .  S
O503        C512   1.282       .  A
O504       Ni508   1.925       .  S
O504        C511   1.282       .  A
O505       Ni508   1.914       .  S
O505        C510   1.279       .  A
O506       Ni508   1.912       .  S
O506        C509   1.280       .  A
Ni507      Ni508   2.389       .  S
C509       C2625   1.486       .  S
C510       C3156   1.484       .  S
C511       C2556   1.475       .  S
C512       C3597   1.466       .  S
O513       Ni521   1.903       .  S
O513        C523   1.276       .  A
O514       Ni521   1.904       .  S
O514        C524   1.276       .  A
O515       Ni521   1.926       .  S
O515        C525   1.283       .  A
O516       Ni521   1.932       .  S
O516        C526   1.285       .  A
O517       Ni522   1.914       .  S
O517        C526   1.279       .  A
O518       Ni522   1.912       .  S
O518        C525   1.279       .  A
O519       Ni522   1.917       .  S
O519        C524   1.282       .  A
O520       Ni522   1.923       .  S
O520        C523   1.284       .  A
Ni521      Ni522   2.390       .  S
C523       C2652   1.481       .  S
C524       C2517   1.461       .  S
C525       C2784   1.471       .  S
C526       C2568   1.483       .  S
O527       Ni533   1.913       .  S
O527        C548   1.271       .  A
O528       Ni551   1.899       .  S
O528        C537   1.265       .  A
O529       Ni533   1.892       .  S
O529       Ni551   1.896   1_545  S
O529       Ni545   1.915       .  S
O529        H552   0.966       .  S
C530        O547   1.276       .  A
C530        O539   1.280       .  A
C530       C2505   1.492       .  S
O531       Ni550   1.939       .  S
O531        C537   1.275       .  A
O532       Ni550   1.902   1_545  S
O532        C534   1.269       .  A
Ni533       O536   1.917   1_545  S
Ni533       O538   1.909   1_545  S
C534        O544   1.276       .  A
C534       C2481   1.478       .  S
O535       Ni551   1.907       .  S
O535        C541   1.271       .  A
O536        C541   1.273       .  A
C537       C2577   1.470       .  S
O538        C540   1.270       .  A
O539       Ni550   1.928   1_545  S
C540        O546   1.272       .  A
C540       C3348   1.470       .  S
C541       C2496   1.476       .  S
H542        O543   0.967       .  S
O543       Ni551   1.896       .  S
O543       Ni545   1.904   1_565  S
O543       Ni550   1.885       .  S
O544       Ni545   1.947       .  S
Ni545       O549   1.922       .  S
Ni545       O547   1.909       .  S
O546       Ni551   1.925       .  S
C548        O549   1.275       .  A
C548       C2469   1.484       .  S
O553       Ni559   1.908   1_554  S
O553        C574   1.265       .  A
O554       Ni577   1.903       .  S
O554        C563   1.267       .  A
O555       Ni559   1.886       .  S
O555       Ni577   1.886       .  S
O555       Ni571   1.891   1_556  S
O555        H578   0.966       .  S
C556        O573   1.269       .  A
C556        O565   1.276       .  A
C556       C2433   1.470       .  S
O557       Ni576   1.918       .  S
O557        C563   1.271       .  A
O558       Ni576   1.891       .  S
O558        C560   1.263       .  A
Ni559       O562   1.899       .  S
Ni559       O564   1.899   1_556  S
C560        O570   1.277       .  A
C560       C2445   1.461       .  S
O561       Ni577   1.925       .  S
O561        C567   1.279       .  A
O562        C567   1.273       .  A
C563       C2424   1.467       .  S
O564        C566   1.266       .  A
O565       Ni576   1.941   1_554  S
C566        O572   1.268       .  A
C566       C2412   1.457       .  S
C567       C3264   1.463       .  S
H568        O569   0.966       .  S
O569       Ni577   1.924   1_554  S
O569       Ni571   1.914       .  S
O569       Ni576   1.895   1_554  S
O570       Ni571   1.953   1_556  S
Ni571       O575   1.916       .  S
Ni571       O573   1.897       .  S
O572       Ni577   1.921   1_554  S
C574        O575   1.270       .  A
C574       C2460   1.470       .  S
C579       C2385   1.502       .  S
C579        C580   1.410       .  A
C579        C584   1.410       .  A
C580        C581   1.409       .  A
C580        H585   1.083       .  S
C581       C2397   1.492       .  S
C581        C582   1.406       .  A
C582        C583   1.405       .  A
C582        H586   1.083       .  S
C583       C2376   1.496       .  S
C583        C584   1.408       .  A
C584        H587   1.083       .  S
C588       C2337   1.487       .  S
C588        C589   1.406       .  A
C588        C593   1.402       .  A
C589        C590   1.406       .  A
C589        H594   1.084       .  S
C590       C2361   1.482       .  S
C590        C591   1.405       .  A
C591        C592   1.403       .  A
C591        H595   1.083       .  S
C592       C2349   1.486   1_556  S
C592        C593   1.404       .  A
C593        H596   1.084       .  S
C597       C2313   1.489       .  S
C597        C598   1.406       .  A
C597        C602   1.409       .  A
C598        C599   1.400       .  A
C598        H603   1.084       .  S
C599       C2325   1.472       .  S
C599        C600   1.397       .  A
C600        C601   1.401       .  A
C600        H604   1.082       .  S
C601       C2301   1.495       .  S
C601        C602   1.412       .  A
C602        H605   1.083       .  S
C606       C2289   1.492   1_556  S
C606        C607   1.409       .  A
C606        C611   1.409       .  A
C607        C608   1.404       .  A
C607        H612   1.084       .  S
C608       C2277   1.479       .  S
C608        C609   1.396       .  A
C609        C610   1.397       .  A
C609        H613   1.084       .  S
C610       C2265   1.477       .  S
C610        C611   1.403       .  A
C611        H614   1.083       .  S
O615       Ni623   1.918       .  S
O615        C625   1.281       .  A
O616       Ni623   1.912       .  S
O616        C626   1.279       .  A
O617       Ni623   1.921       .  S
O617        C627   1.281       .  A
O618       Ni623   1.919       .  S
O618        C628   1.281       .  A
O619       Ni624   1.905       .  S
O619        C628   1.277       .  A
O620       Ni624   1.901       .  S
O620        C627   1.280       .  A
O621       Ni624   1.926       .  S
O621        C626   1.285       .  A
O622       Ni624   1.925       .  S
O622        C625   1.283       .  A
Ni623      Ni624   2.386       .  S
C625       C2316   1.483       .  S
C626       C3012   1.491       .  S
C627       C3072   1.485       .  S
C628       C2268   1.467       .  S
O629       Ni637   1.897       .  S
O629        C639   1.275       .  A
O630       Ni637   1.896       .  S
O630        C640   1.275       .  A
O631       Ni637   1.920       .  S
O631        C641   1.283       .  A
O632       Ni637   1.927       .  S
O632        C642   1.284       .  A
O633       Ni638   1.914       .  S
O633        C642   1.280       .  A
O634       Ni638   1.911       .  S
O634        C641   1.278       .  A
O635       Ni638   1.929       .  S
O635        C640   1.285       .  A
O636       Ni638   1.930       .  S
O636        C639   1.286       .  A
Ni637      Ni638   2.385       .  S
C639       C2304   1.480       .  S
C640       C2448   1.478       .  S
C641       C2253   1.491       .  S
C642       C2340   1.480       .  S
O643       Ni651   1.940       .  S
O643        C653   1.287       .  A
O644       Ni651   1.929       .  S
O644        C654   1.285       .  A
O645       Ni651   1.903       .  S
O645        C655   1.276       .  A
O646       Ni651   1.903       .  S
O646        C656   1.276       .  A
O647       Ni652   1.929       .  S
O647        C656   1.284       .  A
O648       Ni652   1.925       .  S
O648        C655   1.282       .  A
O649       Ni652   1.912       .  S
O649        C654   1.279       .  A
O650       Ni652   1.917       .  S
O650        C653   1.280       .  A
Ni651      Ni652   2.388       .  S
C653       C2388   1.495       .  S
C654       C3648   1.489       .  S
C655       C3132   1.464       .  S
C656       C2328   1.468       .  S
O657       Ni665   1.923       .  S
O657        C667   1.283       .  A
O658       Ni665   1.927       .  S
O658        C668   1.285       .  A
O659       Ni665   1.908       .  S
O659        C669   1.279       .  A
O660       Ni665   1.904       .  S
O660        C670   1.276       .  A
O661       Ni666   1.926       .  S
O661        C670   1.284       .  A
O662       Ni666   1.927       .  S
O662        C669   1.283       .  A
O663       Ni666   1.909       .  S
O663        C668   1.277       .  A
O664       Ni666   1.915       .  S
O664        C667   1.280       .  A
Ni665      Ni666   2.387       .  S
C667       C2292   1.478       .  S
C668       C3588   1.495       .  S
C669       C2352   1.477       .  S
C670       C3240   1.469       .  S
O671       Ni679   1.922       .  S
O671        C681   1.281       .  A
O672       Ni679   1.927       .  S
O672        C682   1.284       .  A
O673       Ni679   1.919       .  S
O673        C683   1.282       .  A
O674       Ni679   1.916       .  S
O674        C684   1.281       .  A
O675       Ni680   1.930       .  S
O675        C684   1.284       .  A
O676       Ni680   1.930       .  S
O676        C683   1.283       .  A
O677       Ni680   1.917       .  S
O677        C682   1.279       .  A
O678       Ni680   1.917       .  S
O678        C681   1.280       .  A
Ni679      Ni680   2.384       .  S
C681       C2364   1.473       .  S
C682       C2913   1.494       .  S
C683       C2373   1.485       .  S
C684       C2733   1.496       .  S
O685       Ni693   1.926       .  S
O685        C695   1.284       .  A
O686       Ni693   1.925       .  S
O686        C696   1.285       .  A
O687       Ni693   1.914       .  S
O687        C697   1.279       .  A
O688       Ni693   1.914       .  S
O688        C698   1.279       .  A
O689       Ni694   1.935       .  S
O689        C698   1.285       .  A
O690       Ni694   1.935       .  S
O690        C697   1.285       .  A
O691       Ni694   1.899       .  S
O691        C696   1.275       .  A
O692       Ni694   1.899       .  S
O692        C695   1.277       .  A
Ni693      Ni694   2.387       .  S
C695       C2280   1.470       .  S
C696       C2241   1.481       .  S
C697       C2964   1.480       .  S
C698       C2400   1.485       .  S
C699       C2229   1.497       .  S
C699        C700   1.405       .  A
C699        C704   1.411       .  A
C700        C701   1.401       .  A
C700        H705   1.084       .  S
C701       C2220   1.476       .  S
C701        C702   1.401       .  A
C702        C703   1.407       .  A
C702        H706   1.083       .  S
C703       C2205   1.496       .  S
C703        C704   1.412       .  A
C704        H707   1.083       .  S
O708       Ni716   1.915       .  S
O708        C718   1.279       .  A
O709       Ni716   1.914       .  S
O709        C719   1.280       .  A
O710       Ni716   1.928       .  S
O710        C720   1.285       .  A
O711       Ni716   1.930       .  S
O711        C721   1.284       .  A
O712       Ni717   1.919       .  S
O712        C721   1.280       .  A
O713       Ni717   1.918       .  S
O713        C720   1.279       .  A
O714       Ni717   1.938       .  S
O714        C719   1.286       .  A
O715       Ni717   1.934       .  S
O715        C718   1.285       .  A
Ni716      Ni717   2.383       .  S
C718       C2208   1.485       .  S
C719       C3660   1.502       .  S
C720       C2844   1.492       .  S
C721       C2196   1.484       .  S
C722       C2169   1.491       .  S
C722        C723   1.413       .  A
C722        C727   1.405       .  A
C723        C724   1.407       .  A
C723        H728   1.083       .  S
C724       C2184   1.485   1_554  S
C724        C725   1.399       .  A
C725        C726   1.393       .  A
C725        H729   1.084       .  S
C726       C2157   1.465       .  S
C726        C727   1.400       .  A
C727        H730   1.083       .  S
C731       C2121   1.490       .  S
C731        C732   1.411       .  A
C731        C736   1.402       .  A
C732        C733   1.409       .  A
C732        H737   1.083       .  S
C733       C2145   1.484   1_554  S
C733        C734   1.400       .  A
C734        C735   1.399       .  A
C734        H738   1.084       .  S
C735       C2133   1.479       .  S
C735        C736   1.401       .  A
C736        H739   1.083       .  S
C740       C2109   1.484       .  S
C740        C741   1.399       .  A
C740        C745   1.406       .  A
C741        C742   1.399       .  A
C741        H746   1.084       .  S
C742       C2097   1.485       .  S
C742        C743   1.407       .  A
C743        C744   1.410       .  A
C743        H747   1.083       .  S
C744       C2193   1.498       .  S
C744        C745   1.411       .  A
C745        H748   1.083       .  S
O749       Ni757   1.900       .  S
O749        C759   1.276       .  A
O750       Ni757   1.898       .  S
O750        C760   1.276       .  A
O751       Ni757   1.937       .  S
O751        C761   1.286       .  A
O752       Ni757   1.941       .  S
O752        C762   1.287       .  A
O753       Ni758   1.901       .  S
O753        C762   1.276       .  A
O754       Ni758   1.902       .  S
O754        C761   1.275       .  A
O755       Ni758   1.934       .  S
O755        C760   1.286       .  A
O756       Ni758   1.933       .  S
O756        C759   1.286       .  A
Ni757      Ni758   2.388       .  S
C759       C2100   1.477       .  S
C760       C3024   1.486       .  S
C761       C3192   1.471       .  S
C762       C2124   1.483       .  S
O763       Ni771   1.911       .  S
O763        C773   1.279       .  A
O764       Ni771   1.908       .  S
O764        C774   1.279       .  A
O765       Ni771   1.905       .  S
O765        C775   1.278       .  A
O766       Ni771   1.899       .  S
O766        C776   1.276       .  A
O767       Ni772   1.912       .  S
O767        C776   1.282       .  A
O768       Ni772   1.916       .  S
O768        C775   1.280       .  A
O769       Ni772   1.915       .  S
O769        C774   1.280       .  A
O770       Ni772   1.920       .  S
O770        C773   1.281       .  A
Ni771      Ni772   2.391       .  S
C773       C2112   1.470       .  S
C774       C2436   1.465       .  S
C775       C2160   1.459       .  S
C776       C3576   1.482       .  S
O777       Ni785   1.925       .  S
O777        C787   1.284       .  A
O778       Ni785   1.923       .  S
O778        C788   1.282       .  A
O779       Ni785   1.901       .  S
O779        C789   1.278       .  A
O780       Ni785   1.905       .  S
O780        C790   1.277       .  A
O781       Ni786   1.935       .  S
O781        C790   1.285       .  A
O782       Ni786   1.938       .  S
O782        C789   1.285       .  A
O783       Ni786   1.911       .  S
O783        C788   1.280       .  A
O784       Ni786   1.912       .  S
O784        C787   1.279       .  A
Ni785      Ni786   2.386       .  S
C787       C2181   1.481       .  S
C788       C3084   1.490       .  S
C789       C2085   1.481       .  S
C790       C2148   1.481       .  S
O791       Ni799   1.928       .  S
O791        C801   1.283       .  A
O792       Ni799   1.922       .  S
O792        C802   1.283       .  A
O793       Ni799   1.893       .  S
O793        C803   1.274       .  A
O794       Ni799   1.893       .  S
O794        C804   1.276       .  A
O795       Ni800   1.935       .  S
O795        C804   1.286       .  A
O796       Ni800   1.943       .  S
O796        C803   1.288       .  A
O797       Ni800   1.914       .  S
O797        C802   1.279       .  A
O798       Ni800   1.917       .  S
O798        C801   1.279       .  A
Ni799      Ni800   2.387       .  S
C801       C2217   1.474       .  S
C802       C2952   1.478       .  S
C803       C2172   1.487       .  S
C804       C2772   1.482       .  S
O805       Ni813   1.914       .  S
O805        C815   1.282       .  A
O806       Ni813   1.913       .  S
O806        C816   1.280       .  A
O807       Ni813   1.917       .  S
O807        C817   1.280       .  A
O808       Ni813   1.919       .  S
O808        C818   1.281       .  A
O809       Ni814   1.930       .  S
O809        C818   1.284       .  A
O810       Ni814   1.928       .  S
O810        C817   1.284       .  A
O811       Ni814   1.903       .  S
O811        C816   1.280       .  A
O812       Ni814   1.906       .  S
O812        C815   1.278       .  A
Ni813      Ni814   2.390       .  S
C815       C2136   1.469       .  S
C816       C2493   1.473       .  S
C817       C2712   1.476       .  S
C818       C2232   1.485       .  S
O819       Ni825   1.919       .  S
O819        C840   1.269       .  A
O820       Ni843   1.924       .  S
O820        C829   1.272       .  A
O821       Ni825   1.913       .  S
O821       Ni843   1.919       .  S
O821       Ni837   1.914       .  S
O821        H844   0.966       .  S
C822        O839   1.263       .  A
C822        O831   1.264       .  A
C822       C3300   1.466       .  S
O823       Ni842   1.886       .  S
O823        C829   1.263       .  A
O824       Ni842   1.890       .  S
O824        C826   1.269       .  A
Ni825       O828   1.911       .  S
Ni825       O830   1.892       .  S
C826        O836   1.276       .  A
C826       C2088   1.497       .  S
O827       Ni843   1.911       .  S
O827        C833   1.270       .  A
O828        C833   1.267       .  A
C829       C2256   1.483       .  S
O830        C832   1.269       .  A
O831       Ni842   1.912       .  S
C832        O838   1.282       .  A
C832       C2049   1.489       .  S
C833       C2061   1.478       .  S
H834        O835   0.966       .  S
O835       Ni843   1.932       .  S
O835       Ni837   1.914       .  S
O835       Ni842   1.916       .  S
O836       Ni837   1.952       .  S
Ni837       O841   1.901       .  S
Ni837       O839   1.905       .  S
O838       Ni843   1.958       .  S
C840        O841   1.262       .  A
C840       C2073   1.488       .  S
O845       Ni851   1.914   1_655  S
O845        C866   1.273       .  A
O846       Ni869   1.888       .  S
O846        C855   1.263       .  A
O847       Ni851   1.886       .  S
O847       Ni869   1.885   1_545  S
O847       Ni863   1.907   1_455  S
O847        H870   0.966       .  S
C848        O865   1.274       .  A
C848        O857   1.277       .  A
C848       C2037   1.472       .  S
O849       Ni868   1.927   1_455  S
O849        C855   1.271       .  A
O850       Ni868   1.902   1_445  S
O850        C852   1.268       .  A
Ni851       O854   1.913   1_545  S
Ni851       O856   1.911   1_445  S
C852        O862   1.276       .  A
C852       C2004   1.487       .  S
O853       Ni869   1.919       .  S
O853        C859   1.274       .  A
O854        C859   1.277       .  A
C855       C2520   1.460       .  S
O856        C858   1.269       .  A
O857       Ni868   1.924   1_545  S
C858        O864   1.276       .  A
C858       C3324   1.483       .  S
C859       C2028   1.490       .  S
H860        O861   0.966   1_565  S
O861       Ni869   1.908   1_645  S
O861       Ni863   1.899       .  S
O861       Ni868   1.903   1_545  S
O862       Ni863   1.943   1_455  S
Ni863       O867   1.906       .  S
Ni863       O865   1.910       .  S
O864       Ni869   1.945   1_655  S
C866        O867   1.268       .  A
C866       C2013   1.478       .  S
C871       C1965   1.484       .  S
C871        C872   1.400       .  A
C871        C876   1.404       .  A
C872        C873   1.402       .  A
C872        H877   1.082       .  S
C873       C1989   1.488   1_545  S
C873        C874   1.405       .  A
C874        C875   1.403       .  A
C874        H878   1.082       .  S
C875       C1977   1.485       .  S
C875        C876   1.404       .  A
C876        H879   1.083       .  S
C880       C1953   1.482       .  S
C880        C881   1.402       .  A
C880        C885   1.404       .  A
C881        C882   1.401       .  A
C881        H886   1.084       .  S
C882       C1929   1.481       .  S
C882        C883   1.401       .  A
C883        C884   1.403       .  A
C883        H887   1.084       .  S
C884       C1944   1.483       .  S
C884        C885   1.406       .  A
C885        H888   1.084       .  S
C889       C1908   1.491       .  S
C889        C890   1.407       .  A
C889        C894   1.411       .  A
C890        C891   1.404       .  A
C890        H895   1.083       .  S
C891       C1917   1.490       .  S
C891        C892   1.402       .  A
C892        C893   1.398       .  A
C892        H896   1.084       .  S
C893       C1893   1.480       .  S
C893        C894   1.407       .  A
C894        H897   1.083       .  S
O898       Ni906   1.927       .  S
O898        C908   1.283       .  A
O899       Ni906   1.925       .  S
O899        C909   1.281       .  A
O900       Ni906   1.913       .  S
O900        C910   1.281       .  A
O901       Ni906   1.909       .  S
O901        C911   1.279       .  A
O902       Ni907   1.917       .  S
O902        C911   1.281       .  A
O903       Ni907   1.911       .  S
O903        C910   1.279       .  A
O904       Ni907   1.910       .  S
O904        C909   1.282       .  A
O905       Ni907   1.917       .  S
O905        C908   1.280       .  A
Ni906      Ni907   2.386       .  S
C908       C1905   1.478       .  S
C909       C2484   1.494       .  S
C910       C3561   1.483       .  S
C911       C1932   1.469       .  S
O912       Ni920   1.928       .  S
O912        C922   1.285       .  A
O913       Ni920   1.924       .  S
O913        C923   1.284       .  A
O914       Ni920   1.905       .  S
O914        C924   1.276       .  A
O915       Ni920   1.893       .  S
O915        C925   1.275       .  A
O916       Ni921   1.932       .  S
O916        C925   1.285       .  A
O917       Ni921   1.940       .  S
O917        C924   1.287       .  A
O918       Ni921   1.893       .  S
O918        C923   1.275       .  A
O919       Ni921   1.895       .  S
O919        C922   1.275       .  A
Ni920      Ni921   2.390       .  S
C922       C1968   1.471       .  S
C923       C3117   1.474       .  S
C924       C1896   1.475       .  S
C925       C2892   1.471       .  S
C926       C1857   1.475       .  S
C926        C927   1.399       .  A
C926        C931   1.401       .  A
C927        C928   1.399       .  A
C927        H932   1.084       .  S
C928       C1881   1.474       .  S
C928        C929   1.399       .  A
C929        C930   1.401       .  A
C929        H933   1.083       .  S
C930       C1869   1.477       .  S
C930        C931   1.404       .  A
C931        H934   1.084       .  S
O935       Ni943   1.925       .  S
O935        C945   1.283       .  A
O936       Ni943   1.918       .  S
O936        C946   1.285       .  A
O937       Ni943   1.913       .  S
O937        C947   1.280       .  A
O938       Ni943   1.911       .  S
O938        C948   1.278       .  A
O939       Ni944   1.906       .  S
O939        C948   1.282       .  A
O940       Ni944   1.909       .  S
O940        C947   1.280       .  A
O941       Ni944   1.906       .  S
O941        C946   1.276       .  A
O942       Ni944   1.904       .  S
O942        C945   1.279       .  A
Ni943      Ni944   2.387       .  S
C945       C1920   1.476       .  S
C946       C2064   1.490       .  S
C947       C1860   1.470       .  S
C948       C3672   1.474       .  S
O949       Ni957   1.912       .  S
O949        C959   1.282       .  A
O950       Ni957   1.906       .  S
O950        C960   1.279       .  A
O951       Ni957   1.906       .  S
O951        C961   1.278       .  A
O952       Ni957   1.904       .  S
O952        C962   1.278       .  A
O953       Ni958   1.923       .  S
O953        C962   1.282       .  A
O954       Ni958   1.934       .  S
O954        C961   1.284       .  A
O955       Ni958   1.903       .  S
O955        C960   1.280       .  A
O956       Ni958   1.911       .  S
O956        C959   1.278       .  A
Ni957      Ni958   2.391       .  S
C959       C1992   1.474       .  S
C960       C2832   1.466       .  S
C961       C1941   1.477       .  S
C962       C3096   1.466       .  S
O963       Ni971   1.906       .  S
O963        C973   1.279       .  A
O964       Ni971   1.908       .  S
O964        C974   1.279       .  A
O965       Ni971   1.919       .  S
O965        C975   1.282       .  A
O966       Ni971   1.914       .  S
O966        C976   1.280       .  A
O967       Ni972   1.908       .  S
O967        C976   1.281       .  A
O968       Ni972   1.913       .  S
O968        C975   1.280       .  A
O969       Ni972   1.904       .  S
O969        C974   1.280       .  A
O970       Ni972   1.911       .  S
O970        C973   1.279       .  A
Ni971      Ni972   2.391       .  S
C973       C1884   1.464       .  S
C974       C2016   1.468       .  S
C975       C1956   1.477       .  S
C976       C1848   1.477       .  S
O977       Ni985   1.901       .  S
O977        C987   1.277       .  A
O978       Ni985   1.900       .  S
O978        C988   1.277       .  A
O979       Ni985   1.909       .  S
O979        C989   1.281       .  A
O980       Ni985   1.913       .  S
O980        C990   1.281       .  A
O981       Ni986   1.918       .  S
O981        C990   1.281       .  A
O982       Ni986   1.914       .  S
O982        C989   1.279       .  A
O983       Ni986   1.918       .  S
O983        C988   1.283       .  A
O984       Ni986   1.918       .  S
O984        C987   1.282       .  A
Ni985      Ni986   2.392       .  S
C987       C1872   1.466       .  S
C988       C2700   1.472       .  S
C989       C2421   1.468       .  S
C990       C1980   1.474       .  S
C991       C1821   1.484   1_455  S
C991        C992   1.405       .  A
C991        C996   1.401       .  A
C992        C993   1.409       .  A
C992        H997   1.083       .  S
C993       C1833   1.496       .  S
C993        C994   1.408       .  A
C994        C995   1.406       .  A
C994        H998   1.082       .  S
C995       C1812   1.487       .  S
C995        C996   1.403       .  A
C996        H999   1.084       .  S
O1000     Ni1008   1.912       .  S
O1000      C1010   1.279       .  A
O1001     Ni1008   1.909       .  S
O1001      C1011   1.280       .  A
O1002     Ni1008   1.917       .  S
O1002      C1012   1.281       .  A
O1003     Ni1008   1.919       .  S
O1003      C1013   1.281       .  A
O1004     Ni1009   1.922       .  S
O1004      C1013   1.281       .  A
O1005     Ni1009   1.920       .  S
O1005      C1012   1.282       .  A
O1006     Ni1009   1.912       .  S
O1006      C1011   1.280       .  A
O1007     Ni1009   1.920       .  S
O1007      C1010   1.281       .  A
Ni1008    Ni1009   2.391       .  S
C1010      C1797   1.466       .  S
C1011      C2796   1.470       .  S
C1012      C1809   1.478       .  S
C1013      C3225   1.474       .  S
C1014      C1785   1.475       .  S
C1014      C1015   1.402       .  A
C1014      C1019   1.404       .  A
C1015      C1016   1.400       .  A
C1015      H1020   1.084       .  S
C1016      C1776   1.469       .  S
C1016      C1017   1.394       .  A
C1017      C1018   1.395       .  A
C1017      H1021   1.085       .  S
C1018      C1761   1.473       .  S
C1018      C1019   1.405       .  A
C1019      H1022   1.084       .  S
C1023      C1737   1.487       .  S
C1023      C1024   1.404       .  A
C1023      C1028   1.409       .  A
C1024      C1025   1.399       .  A
C1024      H1029   1.084       .  S
C1025      C1800   1.470       .  S
C1025      C1026   1.397       .  A
C1026      C1027   1.403       .  A
C1026      H1030   1.084       .  S
C1027      C1752   1.486       .  S
C1027      C1028   1.408       .  A
C1028      H1031   1.084       .  S
O1032     Ni1040   1.930       .  S
O1032      C1042   1.285       .  A
O1033     Ni1040   1.926       .  S
O1033      C1043   1.285       .  A
O1034     Ni1040   1.908       .  S
O1034      C1044   1.277       .  A
O1035     Ni1040   1.910       .  S
O1035      C1045   1.279       .  A
O1036     Ni1041   1.930       .  S
O1036      C1045   1.284       .  A
O1037     Ni1041   1.926       .  S
O1037      C1044   1.286       .  A
O1038     Ni1041   1.887       .  S
O1038      C1043   1.274       .  A
O1039     Ni1041   1.889       .  S
O1039      C1042   1.275       .  A
Ni1040    Ni1041   2.387       .  S
C1042      C1764   1.467       .  S
C1043      C3621   1.477       .  S
C1044      C3048   1.487       .  S
C1045      C1740   1.479       .  S
C1046      C1713   1.491       .  S
C1046      C1047   1.409       .  A
C1046      C1051   1.407       .  A
C1047      C1048   1.407       .  A
C1047      H1052   1.083       .  S
C1048      C1725   1.489       .  S
C1048      C1049   1.401       .  A
C1049      C1050   1.399       .  A
C1049      H1053   1.084       .  S
C1050      C1701   1.482   1_455  S
C1050      C1051   1.406       .  A
C1051      H1054   1.084       .  S
O1055     Ni1063   1.918       .  S
O1055      C1065   1.282       .  A
O1056     Ni1063   1.915       .  S
O1056      C1066   1.280       .  A
O1057     Ni1063   1.926       .  S
O1057      C1067   1.283       .  A
O1058     Ni1063   1.924       .  S
O1058      C1068   1.283       .  A
O1059     Ni1064   1.921       .  S
O1059      C1068   1.281       .  A
O1060     Ni1064   1.921       .  S
O1060      C1067   1.282       .  A
O1061     Ni1064   1.920       .  S
O1061      C1066   1.282       .  A
O1062     Ni1064   1.919       .  S
O1062      C1065   1.281       .  A
Ni1063    Ni1064   2.387       .  S
C1065      C1749   1.480       .  S
C1066      C1692   1.477       .  S
C1067      C1716   1.488       .  S
C1068      C3165   1.480       .  S
O1069     Ni1077   1.925       .  S
O1069      C1079   1.283       .  A
O1070     Ni1077   1.921       .  S
O1070      C1080   1.281       .  A
O1071     Ni1077   1.912       .  S
O1071      C1081   1.280       .  A
O1072     Ni1077   1.919       .  S
O1072      C1082   1.282       .  A
O1073     Ni1078   1.919       .  S
O1073      C1082   1.282       .  A
O1074     Ni1078   1.915       .  S
O1074      C1081   1.282       .  A
O1075     Ni1078   1.900       .  S
O1075      C1080   1.279       .  A
O1076     Ni1078   1.907       .  S
O1076      C1079   1.278       .  A
Ni1077    Ni1078   2.388       .  S
C1079      C1704   1.473       .  S
C1080      C2856   1.476       .  S
C1081      C2076   1.479       .  S
C1082      C1824   1.481       .  S
O1083     Ni1091   1.930       .  S
O1083      C1093   1.285       .  A
O1084     Ni1091   1.928       .  S
O1084      C1094   1.285       .  A
O1085     Ni1091   1.911       .  S
O1085      C1095   1.278       .  A
O1086     Ni1091   1.908       .  S
O1086      C1096   1.277       .  A
O1087     Ni1092   1.916       .  S
O1087      C1096   1.281       .  A
O1088     Ni1092   1.924       .  S
O1088      C1095   1.282       .  A
O1089     Ni1092   1.916       .  S
O1089      C1094   1.279       .  A
O1090     Ni1092   1.917       .  S
O1090      C1093   1.280       .  A
Ni1091    Ni1092   2.388       .  S
C1093      C1836   1.487       .  S
C1094      C2880   1.490       .  S
C1095      C1788   1.469       .  S
C1096      C2025   1.464       .  S
O1097     Ni1105   1.914       .  S
O1097      C1107   1.280       .  A
O1098     Ni1105   1.907       .  S
O1098      C1108   1.279       .  A
O1099     Ni1105   1.913       .  S
O1099      C1109   1.281       .  A
O1100     Ni1105   1.919       .  S
O1100      C1110   1.282       .  A
O1101     Ni1106   1.893       .  S
O1101      C1110   1.275       .  A
O1102     Ni1106   1.893       .  S
O1102      C1109   1.275       .  A
O1103     Ni1106   1.923       .  S
O1103      C1108   1.284       .  A
O1104     Ni1106   1.924       .  S
O1104      C1107   1.284       .  A
Ni1105    Ni1106   2.392       .  S
C1107      C1728   1.480       .  S
C1108      C2997   1.484       .  S
C1109      C2940   1.450       .  S
C1110      C1773   1.460       .  S
C1111      C1665   1.465       .  S
C1111      C1112   1.392       .  A
C1111      C1116   1.401       .  A
C1112      C1113   1.397       .  A
C1112      H1117   1.084       .  S
C1113      C1680   1.471       .  S
C1113      C1114   1.401       .  A
C1114      C1115   1.403       .  A
C1114      H1118   1.084       .  S
C1115      C1653   1.479       .  S
C1115      C1116   1.403       .  A
C1116      H1119   1.084       .  S
O1120     Ni1128   1.912       .  S
O1120      C1130   1.281       .  A
O1121     Ni1128   1.915       .  S
O1121      C1131   1.283       .  A
O1122     Ni1128   1.887       .  S
O1122      C1132   1.275       .  A
O1123     Ni1128   1.885       .  S
O1123      C1133   1.273       .  A
O1124     Ni1129   1.923       .  S
O1124      C1133   1.283       .  A
O1125     Ni1129   1.924       .  S
O1125      C1132   1.282       .  A
O1126     Ni1129   1.921       .  S
O1126      C1131   1.280       .  A
O1127     Ni1129   1.922       .  S
O1127      C1130   1.282       .  A
Ni1128    Ni1129   2.393       .  S
C1130      C1641   1.484       .  S
C1131      C3552   1.477       .  S
C1132      C1668   1.456       .  S
C1133      C3612   1.452       .  S
C1134      C1620   1.495       .  S
C1134      C1135   1.409       .  A
C1134      C1139   1.408       .  A
C1135      C1136   1.409       .  A
C1135      H1140   1.082       .  S
C1136      C1644   1.490       .  S
C1136      C1137   1.402       .  A
C1137      C1138   1.399       .  A
C1137      H1141   1.084       .  S
C1138      C1629   1.485       .  S
C1138      C1139   1.404       .  A
C1139      H1142   1.084       .  S
C1143      C1581   1.484       .  S
C1143      C1144   1.402       .  A
C1143      C1148   1.405       .  A
C1144      C1145   1.404       .  A
C1144      H1149   1.083       .  S
C1145      C1605   1.488   1_655  S
C1145      C1146   1.405       .  A
C1146      C1147   1.403       .  A
C1146      H1150   1.083       .  S
C1147      C1593   1.490       .  S
C1147      C1148   1.407       .  A
C1148      H1151   1.084       .  S
C1152      C1569   1.485   1_655  S
C1152      C1153   1.402       .  A
C1152      C1157   1.409       .  A
C1153      C1154   1.401       .  A
C1153      H1158   1.084       .  S
C1154      C1557   1.477       .  S
C1154      C1155   1.400       .  A
C1155      C1156   1.404       .  A
C1155      H1159   1.084       .  S
C1156      C1545   1.496       .  S
C1156      C1157   1.413       .  A
C1157      H1160   1.083       .  S
O1161     Ni1169   1.916       .  S
O1161      C1171   1.282       .  A
O1162     Ni1169   1.917       .  S
O1162      C1172   1.283       .  A
O1163     Ni1169   1.901       .  S
O1163      C1173   1.277       .  A
O1164     Ni1169   1.910       .  S
O1164      C1174   1.278       .  A
O1165     Ni1170   1.941       .  S
O1165      C1174   1.286       .  A
O1166     Ni1170   1.930       .  S
O1166      C1173   1.285       .  A
O1167     Ni1170   1.910       .  S
O1167      C1172   1.277       .  A
O1168     Ni1170   1.911       .  S
O1168      C1171   1.279       .  A
Ni1169    Ni1170   2.389       .  S
C1171      C1608   1.477       .  S
C1172      C3144   1.471       .  S
C1173      C3216   1.476       .  S
C1174      C1572   1.481       .  S
O1175     Ni1183   1.936       .  S
O1175      C1185   1.286       .  A
O1176     Ni1183   1.931       .  S
O1176      C1186   1.284       .  A
O1177     Ni1183   1.924       .  S
O1177      C1187   1.282       .  A
O1178     Ni1183   1.922       .  S
O1178      C1188   1.281       .  A
O1179     Ni1184   1.923       .  S
O1179      C1188   1.283       .  A
O1180     Ni1184   1.924       .  S
O1180      C1187   1.283       .  A
O1181     Ni1184   1.911       .  S
O1181      C1186   1.281       .  A
O1182     Ni1184   1.910       .  S
O1182      C1185   1.279       .  A
Ni1183    Ni1184   2.386       .  S
C1185      C1548   1.487       .  S
C1186      C2052   1.490       .  S
C1187      C1617   1.487       .  S
C1188      C1533   1.479       .  S
O1189     Ni1197   1.896       .  S
O1189      C1199   1.276       .  A
O1190     Ni1197   1.900       .  S
O1190      C1200   1.275       .  A
O1191     Ni1197   1.934       .  S
O1191      C1201   1.286       .  A
O1192     Ni1197   1.927       .  S
O1192      C1202   1.286       .  A
O1193     Ni1198   1.896       .  S
O1193      C1202   1.275       .  A
O1194     Ni1198   1.904       .  S
O1194      C1201   1.277       .  A
O1195     Ni1198   1.913       .  S
O1195      C1200   1.282       .  A
O1196     Ni1198   1.913       .  S
O1196      C1199   1.282       .  A
Ni1197    Ni1198   2.393       .  S
C1199      C1677   1.459       .  S
C1200      C2976   1.455       .  S
C1201      C1596   1.479       .  S
C1202      C2457   1.472       .  S
O1203     Ni1211   1.907       .  S
O1203      C1213   1.278       .  A
O1204     Ni1211   1.906       .  S
O1204      C1214   1.280       .  A
O1205     Ni1211   1.915       .  S
O1205      C1215   1.282       .  A
O1206     Ni1211   1.925       .  S
O1206      C1216   1.283       .  A
O1207     Ni1212   1.910       .  S
O1207      C1216   1.279       .  A
O1208     Ni1212   1.905       .  S
O1208      C1215   1.277       .  A
O1209     Ni1212   1.930       .  S
O1209      C1214   1.284       .  A
O1210     Ni1212   1.926       .  S
O1210      C1213   1.284       .  A
Ni1211    Ni1212   2.386       .  S
C1213      C1632   1.479       .  S
C1214      C2760   1.496       .  S
C1215      C2808   1.472       .  S
C1216      C1584   1.476       .  S
O1217     Ni1225   1.920       .  S
O1217      C1227   1.281       .  A
O1218     Ni1225   1.919       .  S
O1218      C1228   1.283       .  A
O1219     Ni1225   1.917       .  S
O1219      C1229   1.279       .  A
O1220     Ni1225   1.913       .  S
O1220      C1230   1.279       .  A
O1221     Ni1226   1.911       .  S
O1221      C1230   1.280       .  A
O1222     Ni1226   1.904       .  S
O1222      C1229   1.282       .  A
O1223     Ni1226   1.906       .  S
O1223      C1228   1.278       .  A
O1224     Ni1226   1.910       .  S
O1224      C1227   1.279       .  A
Ni1225    Ni1226   2.388       .  S
C1227      C1560   1.466       .  S
C1228      C2508   1.480       .  S
C1229      C2040   1.488       .  S
C1230      C1656   1.465       .  S
O1231     Ni1237   1.918   1_455  S
O1231      C1252   1.271       .  A
O1232     Ni1255   1.900       .  S
O1232      C1241   1.270       .  A
O1233     Ni1237   1.895       .  S
O1233     Ni1255   1.893       .  S
O1233     Ni1249   1.920   1_655  S
O1233      H1256   0.965       .  S
C1234      O1251   1.278       .  A
C1234      O1243   1.275       .  A
C1234      C1521   1.480       .  S
O1235     Ni1254   1.920   1_655  S
O1235      C1241   1.271       .  A
O1236     Ni1254   1.898   1_655  S
O1236      C1238   1.269       .  A
Ni1237     O1240   1.920       .  S
Ni1237     O1242   1.909       .  S
C1238      O1248   1.276       .  A
C1238      C3252   1.467       .  S
O1239     Ni1255   1.929       .  S
O1239      C1245   1.276       .  A
O1240      C1245   1.274       .  A
C1241      C1845   1.481       .  S
O1242      C1244   1.271   1_655  A
O1243     Ni1254   1.921       .  S
C1244      O1250   1.274       .  A
C1244      C1689   1.475       .  S
C1245      C1536   1.476       .  S
H1246      O1247   0.966       .  S
O1247     Ni1255   1.917   1_455  S
O1247     Ni1249   1.900       .  S
O1247     Ni1254   1.891       .  S
O1248     Ni1249   1.941   1_655  S
Ni1249     O1253   1.904       .  S
Ni1249     O1251   1.926       .  S
O1250     Ni1255   1.931   1_455  S
C1252      O1253   1.271       .  A
C1252      C2244   1.474       .  S
C1257      C1509   1.491   1_455  S
C1257      C1258   1.400       .  A
C1257      C1262   1.411       .  A
C1258      C1259   1.400       .  A
C1258      H1263   1.084       .  S
C1259      C1497   1.483   1_554  S
C1259      C1260   1.401       .  A
C1260      C1261   1.408       .  A
C1260      H1264   1.084       .  S
C1261      C1485   1.498       .  S
C1261      C1262   1.415       .  A
C1262      H1265   1.083       .  S
O1266     Ni1274   1.935       .  S
O1266      C1276   1.285       .  A
O1267     Ni1274   1.933       .  S
O1267      C1277   1.284       .  A
O1268     Ni1274   1.925       .  S
O1268      C1278   1.282       .  A
O1269     Ni1274   1.927       .  S
O1269      C1279   1.283       .  A
O1270     Ni1275   1.925       .  S
O1270      C1279   1.283       .  A
O1271     Ni1275   1.928       .  S
O1271      C1278   1.284       .  A
O1272     Ni1275   1.916       .  S
O1272      C1277   1.280       .  A
O1273     Ni1275   1.925       .  S
O1273      C1276   1.281       .  A
Ni1274    Ni1275   2.383       .  S
C1276      C1476   1.486       .  S
C1277      C2928   1.502       .  S
C1278      C1488   1.489       .  S
C1279      C3177   1.489       .  S
C1280      C1440   1.482       .  S
C1280      C1281   1.406       .  A
C1280      C1285   1.398       .  A
C1281      C1282   1.412       .  A
C1281      H1286   1.083       .  S
C1282      C1461   1.500   1_545  S
C1282      C1283   1.408       .  A
C1283      C1284   1.403       .  A
C1283      H1287   1.082       .  S
C1284      C1452   1.476   1_455  S
C1284      C1285   1.398       .  A
C1285      H1288   1.084       .  S
C1289      C1428   1.509       .  S
C1289      C1290   1.418       .  A
C1289      C1294   1.409       .  A
C1290      C1291   1.411       .  A
C1290      H1295   1.082       .  S
C1291      C1473   1.498       .  S
C1291      C1292   1.406       .  A
C1292      C1293   1.402       .  A
C1292      H1296   1.084       .  S
C1293      C1413   1.493       .  S
C1293      C1294   1.405       .  A
C1294      H1297   1.080       .  S
O1298     Ni1306   1.929       .  S
O1298      C1308   1.283       .  A
O1299     Ni1306   1.925       .  S
O1299      C1309   1.282       .  A
O1300     Ni1306   1.923       .  S
O1300      C1310   1.282       .  A
O1301     Ni1306   1.927       .  S
O1301      C1311   1.283       .  A
O1302     Ni1307   1.912       .  S
O1302      C1311   1.280       .  A
O1303     Ni1307   1.913       .  S
O1303      C1310   1.279       .  A
O1304     Ni1307   1.915       .  S
O1304      C1309   1.282       .  A
O1305     Ni1307   1.919       .  S
O1305      C1308   1.281       .  A
Ni1306    Ni1307   2.388       .  S
C1308      C1416   1.484       .  S
C1309      C2001   1.489       .  S
C1310      C3105   1.469       .  S
C1311      C1437   1.480       .  S
C1312      C1380   1.492       .  S
C1312      C1313   1.409       .  A
C1312      C1317   1.404       .  A
C1313      C1314   1.408       .  A
C1313      H1318   1.084       .  S
C1314      C1401   1.493   1_554  S
C1314      C1315   1.408       .  A
C1315      C1316   1.405       .  A
C1315      H1319   1.083       .  S
C1316      C1392   1.483   1_545  S
C1316      C1317   1.403       .  A
C1317      H1320   1.084       .  S
O1321     Ni1329   1.921       .  S
O1321      C1331   1.282       .  A
O1322     Ni1329   1.913       .  S
O1322      C1332   1.280       .  A
O1323     Ni1329   1.914       .  S
O1323      C1333   1.282       .  A
O1324     Ni1329   1.911       .  S
O1324      C1334   1.278       .  A
O1325     Ni1330   1.942       .  S
O1325      C1334   1.288       .  A
O1326     Ni1330   1.936       .  S
O1326      C1333   1.284       .  A
O1327     Ni1330   1.920       .  S
O1327      C1332   1.279       .  A
O1328     Ni1330   1.926       .  S
O1328      C1331   1.282       .  A
Ni1329    Ni1330   2.384       .  S
C1331      C1377   1.481       .  S
C1332      C3537   1.467       .  S
C1333      C2688   1.499       .  S
C1334      C1425   1.499       .  S
O1335     Ni1343   1.924       .  S
O1335      C1345   1.283       .  A
O1336     Ni1343   1.920       .  S
O1336      C1346   1.285       .  A
O1337     Ni1343   1.920       .  S
O1337      C1347   1.280       .  A
O1338     Ni1343   1.918       .  S
O1338      C1348   1.280       .  A
O1339     Ni1344   1.930       .  S
O1339      C1348   1.284       .  A
O1340     Ni1344   1.928       .  S
O1340      C1347   1.283       .  A
O1341     Ni1344   1.912       .  S
O1341      C1346   1.278       .  A
O1342     Ni1344   1.905       .  S
O1342      C1345   1.279       .  A
Ni1343    Ni1344   2.388       .  S
C1345      C1500   1.474       .  S
C1346      C2865   1.487       .  S
C1347      C1524   1.476       .  S
C1348      C1404   1.484       .  S
O1349     Ni1357   1.909       .  S
O1349      C1359   1.277       .  A
O1350     Ni1357   1.910       .  S
O1350      C1360   1.279       .  A
O1351     Ni1357   1.940       .  S
O1351      C1361   1.286       .  A
O1352     Ni1357   1.932       .  S
O1352      C1362   1.284       .  A
O1353     Ni1358   1.911       .  S
O1353      C1362   1.279       .  A
O1354     Ni1358   1.913       .  S
O1354      C1361   1.278       .  A
O1355     Ni1358   1.922       .  S
O1355      C1360   1.283       .  A
O1356     Ni1358   1.929       .  S
O1356      C1359   1.285       .  A
Ni1357    Ni1358   2.385       .  S
C1359      C1464   1.489       .  S
C1360      C2988   1.477       .  S
C1361      C1389   1.482       .  S
C1362      C2748   1.484       .  S
O1363     Ni1371   1.922       .  S
O1363      C1373   1.282       .  A
O1364     Ni1371   1.917       .  S
O1364      C1374   1.282       .  A
O1365     Ni1371   1.910       .  S
O1365      C1375   1.279       .  A
O1366     Ni1371   1.909       .  S
O1366      C1376   1.278       .  A
O1367     Ni1372   1.934       .  S
O1367      C1376   1.285       .  A
O1368     Ni1372   1.925       .  S
O1368      C1375   1.284       .  A
O1369     Ni1372   1.903       .  S
O1369      C1374   1.279       .  A
O1370     Ni1372   1.899       .  S
O1370      C1373   1.277       .  A
Ni1371    Ni1372   2.387       .  S
C1373      C1449   1.464       .  S
C1374      C2409   1.481       .  S
C1375      C2472   1.487       .  S
C1376      C1512   1.479       .  S
C1377      C1378   1.403       .  A
C1377      C1382   1.412       .  A
C1378      C1379   1.405       .  A
C1378      H1387   1.084       .  S
C1379      C1380   1.419       .  A
C1379      S1383   1.804       .  S
C1380      C1381   1.403       .  A
C1381      C1382   1.397       .  A
C1381      H1388   1.084       .  S
C1382      S1384   1.796       .  S
S1383      H1386   1.407       .  S
S1384      H1385   1.406       .  S
C1389      C1390   1.405       .  A
C1389      C1394   1.412       .  A
C1390      C1391   1.405       .  A
C1390      H1399   1.084       .  S
C1391      C1392   1.414       .  A
C1391      S1395   1.803       .  S
C1392      C1393   1.402       .  A
C1393      C1394   1.398       .  A
C1393      H1400   1.084   1_565  S
C1394      S1396   1.796       .  S
S1395      H1398   1.406       .  S
S1396      H1397   1.406       .  S
C1401      C1402   1.406       .  A
C1401      C1406   1.418       .  A
C1402      C1403   1.403       .  A
C1402      H1411   1.084       .  S
C1403      C1404   1.415       .  A
C1403      S1407   1.804       .  S
C1404      C1405   1.403       .  A
C1405      C1406   1.403       .  A
C1405      H1412   1.084       .  S
C1406      S1408   1.804   1_556  S
S1407      H1410   1.407       .  S
S1408      H1409   1.407       .  S
C1413      C1414   1.409       .  A
C1413      C1418   1.416       .  A
C1414      C1415   1.404       .  A
C1414      H1423   1.084       .  S
C1415      C1416   1.412       .  A
C1415      S1419   1.799       .  S
C1416      C1417   1.403       .  A
C1417      C1418   1.398       .  A
C1417      H1424   1.080       .  S
C1418      S1420   1.805       .  S
S1419      H1422   1.406       .  S
S1420      H1421   1.407       .  S
C1425      C1426   1.405       .  A
C1425      C1430   1.420       .  A
C1426      C1427   1.406       .  A
C1426      H1435   1.084       .  S
C1427      C1428   1.424       .  A
C1427      S1431   1.805       .  S
C1428      C1429   1.406       .  A
C1429      C1430   1.401       .  A
C1429      H1436   1.082       .  S
C1430      S1432   1.799       .  S
S1431      H1434   1.407       .  S
S1432      H1433   1.408       .  S
C1437      C1438   1.405       .  A
C1437      C1442   1.413       .  A
C1438      C1439   1.404       .  A
C1438      H1447   1.084       .  S
C1439      C1440   1.416       .  A
C1439      S1443   1.804   1_455  S
C1440      C1441   1.401       .  A
C1441      C1442   1.394       .  A
C1441      H1448   1.084       .  S
C1442      S1444   1.798       .  S
S1443      H1446   1.406       .  S
S1444      H1445   1.404       .  S
C1449      C1450   1.401       .  A
C1449      C1454   1.410       .  A
C1450      C1451   1.394       .  A
C1450      H1459   1.085       .  S
C1451      C1452   1.412       .  A
C1451      S1455   1.803       .  S
C1452      C1453   1.405       .  A
C1453      C1454   1.399       .  A
C1453      H1460   1.084   1_655  S
C1454      S1456   1.804       .  S
S1455      H1458   1.406       .  S
S1456      H1457   1.405       .  S
C1461      C1462   1.406       .  A
C1461      C1466   1.418       .  A
C1462      C1463   1.399       .  A
C1462      H1471   1.082       .  S
C1463      C1464   1.421       .  A
C1463      S1467   1.807       .  S
C1464      C1465   1.405       .  A
C1465      C1466   1.402       .  A
C1465      H1472   1.084       .  S
C1466      S1468   1.803   1_455  S
S1467      H1470   1.395       .  S
S1468      H1469   1.407       .  S
C1473      C1474   1.406       .  A
C1473      C1478   1.419       .  A
C1474      C1475   1.398       .  A
C1474      H1483   1.084       .  S
C1475      C1476   1.410       .  A
C1475      S1479   1.797       .  S
C1476      C1477   1.406       .  A
C1477      C1478   1.410       .  A
C1477      H1484   1.084       .  S
C1478      S1480   1.803       .  S
S1479      H1482   1.406       .  S
S1480      H1481   1.406       .  S
C1485      C1486   1.409       .  A
C1485      C1490   1.418       .  A
C1486      C1487   1.403       .  A
C1486      H1495   1.084       .  S
C1487      C1488   1.413       .  A
C1487      S1491   1.804       .  S
C1488      C1489   1.405       .  A
C1489      C1490   1.404       .  A
C1489      H1496   1.082       .  S
C1490      S1492   1.803       .  S
S1491      H1494   1.407       .  S
S1492      H1493   1.407       .  S
C1497      C1498   1.406       .  A
C1497      C1502   1.413       .  A
C1498      C1499   1.401       .  A
C1498      H1507   1.084   1_556  S
C1499      C1500   1.412       .  A
C1499      S1503   1.803       .  S
C1500      C1501   1.403       .  A
C1501      C1502   1.395       .  A
C1501      H1508   1.084       .  S
C1502      S1504   1.805       .  S
S1503      H1506   1.407       .  S
S1504      H1505   1.407       .  S
C1509      C1510   1.405       .  A
C1509      C1514   1.419       .  A
C1510      C1511   1.404       .  A
C1510      H1519   1.084       .  S
C1511      C1512   1.414       .  A
C1511      S1515   1.804       .  S
C1512      C1513   1.401       .  A
C1513      C1514   1.401       .  A
C1513      H1520   1.084       .  S
C1514      S1516   1.805   1_655  S
S1515      H1518   1.407       .  S
S1516      H1517   1.407       .  S
C1521      C1522   1.404       .  A
C1521      C1526   1.415       .  A
C1522      C1523   1.402       .  A
C1522      H1531   1.084       .  S
C1523      C1524   1.413       .  A
C1523      S1527   1.802       .  S
C1524      C1525   1.402       .  A
C1525      C1526   1.402       .  A
C1525      H1532   1.084       .  S
C1526      S1528   1.803       .  S
S1527      H1530   1.404       .  S
S1528      H1529   1.407       .  S
C1533      C1534   1.407       .  A
C1533      C1538   1.414       .  A
C1534      C1535   1.406       .  A
C1534      H1543   1.084       .  S
C1535      C1536   1.411       .  A
C1535      S1539   1.802       .  S
C1536      C1537   1.402       .  A
C1537      C1538   1.397       .  A
C1537      H1544   1.084       .  S
C1538      S1540   1.806       .  S
S1539      H1542   1.406       .  S
S1540      H1541   1.399       .  S
C1545      C1546   1.410       .  A
C1545      C1550   1.415       .  A
C1546      C1547   1.403       .  A
C1546      H1555   1.084       .  S
C1547      C1548   1.414       .  A
C1547      S1551   1.804       .  S
C1548      C1549   1.406       .  A
C1549      C1550   1.400       .  A
C1549      H1556   1.082       .  S
C1550      S1552   1.804       .  S
S1551      H1554   1.403       .  S
S1552      H1553   1.407       .  S
C1557      C1558   1.403       .  A
C1557      C1562   1.415       .  A
C1558      C1559   1.398       .  A
C1558      H1567   1.084       .  S
C1559      C1560   1.411       .  A
C1559      S1563   1.804       .  S
C1560      C1561   1.400       .  A
C1561      C1562   1.399       .  A
C1561      H1568   1.084       .  S
C1562      S1564   1.805       .  S
S1563      H1566   1.406       .  S
S1564      H1565   1.406       .  S
C1569      C1570   1.401   1_455  A
C1569      C1574   1.416       .  A
C1570      C1571   1.398   1_655  A
C1570      H1579   1.084       .  S
C1571      C1572   1.414       .  A
C1571      S1575   1.802       .  S
C1572      C1573   1.404       .  A
C1573      C1574   1.407       .  A
C1573      H1580   1.084       .  S
C1574      S1576   1.803       .  S
S1575      H1578   1.402       .  S
S1576      H1577   1.406       .  S
C1581      C1582   1.403       .  A
C1581      C1586   1.416       .  A
C1582      C1583   1.398       .  A
C1582      H1591   1.084       .  S
C1583      C1584   1.415       .  A
C1583      S1587   1.804       .  S
C1584      C1585   1.402       .  A
C1585      C1586   1.401       .  A
C1585      H1592   1.084       .  S
C1586      S1588   1.802       .  S
S1587      H1590   1.404       .  S
S1588      H1589   1.406       .  S
C1593      C1594   1.403       .  A
C1593      C1598   1.418       .  A
C1594      C1595   1.396       .  A
C1594      H1603   1.084       .  S
C1595      C1596   1.416       .  A
C1595      S1599   1.806       .  S
C1596      C1597   1.403       .  A
C1597      C1598   1.404       .  A
C1597      H1604   1.084       .  S
C1598      S1600   1.804       .  S
S1599      H1602   1.401       .  S
S1600      H1601   1.407       .  S
C1605      C1606   1.406       .  A
C1605      C1610   1.417       .  A
C1606      C1607   1.396       .  A
C1606      H1615   1.083   1_455  S
C1607      C1608   1.413       .  A
C1607      S1611   1.800       .  S
C1608      C1609   1.402       .  A
C1609      C1610   1.398       .  A
C1609      H1616   1.083       .  S
C1610      S1612   1.802       .  S
S1611      H1614   1.408       .  S
S1612      H1613   1.407       .  S
C1617      C1618   1.406       .  A
C1617      C1622   1.413       .  A
C1618      C1619   1.407       .  A
C1618      H1627   1.084       .  S
C1619      C1620   1.418       .  A
C1619      S1623   1.803       .  S
C1620      C1621   1.405       .  A
C1621      C1622   1.397       .  A
C1621      H1628   1.084       .  S
C1622      S1624   1.799       .  S
S1623      H1626   1.406       .  S
S1624      H1625   1.403       .  S
C1629      C1630   1.403       .  A
C1629      C1634   1.416       .  A
C1630      C1631   1.398       .  A
C1630      H1639   1.084       .  S
C1631      C1632   1.416       .  A
C1631      S1635   1.804       .  S
C1632      C1633   1.404       .  A
C1633      C1634   1.400       .  A
C1633      H1640   1.084       .  S
C1634      S1636   1.805       .  S
S1635      H1638   1.405       .  S
S1636      H1637   1.406       .  S
C1641      C1642   1.406       .  A
C1641      C1646   1.416       .  A
C1642      C1643   1.399       .  A
C1642      H1651   1.083       .  S
C1643      C1644   1.415       .  A
C1643      S1647   1.804       .  S
C1644      C1645   1.407       .  A
C1645      C1646   1.399       .  A
C1645      H1652   1.084       .  S
C1646      S1648   1.804       .  S
S1647      H1650   1.407       .  S
S1648      H1649   1.405       .  S
C1653      C1654   1.404       .  A
C1653      C1658   1.417       .  A
C1654      C1655   1.396       .  A
C1654      H1663   1.084       .  S
C1655      C1656   1.410       .  A
C1655      S1659   1.804       .  S
C1656      C1657   1.400       .  A
C1657      C1658   1.397       .  A
C1657      H1664   1.084       .  S
C1658      S1660   1.805       .  S
S1659      H1662   1.406       .  S
S1660      H1661   1.407       .  S
C1665      C1666   1.398       .  A
C1665      C1670   1.414       .  A
C1666      C1667   1.388       .  A
C1666      H1675   1.084       .  S
C1667      C1668   1.409       .  A
C1667      S1671   1.803       .  S
C1668      C1669   1.400       .  A
C1669      C1670   1.400       .  A
C1669      H1676   1.084       .  S
C1670      S1672   1.804       .  S
S1671      H1674   1.406       .  S
S1672      H1673   1.406       .  S
C1677      C1678   1.400       .  A
C1677      C1682   1.413       .  A
C1678      C1679   1.393       .  A
C1678      H1687   1.084       .  S
C1679      C1680   1.413       .  A
C1679      S1683   1.805       .  S
C1680      C1681   1.403       .  A
C1681      C1682   1.394       .  A
C1681      H1688   1.084       .  S
C1682      S1684   1.807       .  S
S1683      H1686   1.407       .  S
S1684      H1685   1.402       .  S
C1689      C1690   1.403       .  A
C1689      C1694   1.411       .  A
C1690      C1691   1.397       .  A
C1690      H1699   1.084   1_455  S
C1691      C1692   1.414       .  A
C1691      S1695   1.803       .  S
C1692      C1693   1.405       .  A
C1693      C1694   1.402       .  A
C1693      H1700   1.084       .  S
C1694      S1696   1.799       .  S
S1695      H1698   1.407       .  S
S1696      H1697   1.406       .  S
C1701      C1702   1.406       .  A
C1701      C1706   1.414       .  A
C1702      C1703   1.401       .  A
C1702      H1711   1.084       .  S
C1703      C1704   1.411       .  A
C1703      S1707   1.804       .  S
C1704      C1705   1.402       .  A
C1705      C1706   1.398       .  A
C1705      H1712   1.084       .  S
C1706      S1708   1.804   1_655  S
S1707      H1710   1.407       .  S
S1708      H1709   1.407       .  S
C1713      C1714   1.405       .  A
C1713      C1718   1.415       .  A
C1714      C1715   1.403       .  A
C1714      H1723   1.084       .  S
C1715      C1716   1.417       .  A
C1715      S1719   1.803       .  S
C1716      C1717   1.406       .  A
C1717      C1718   1.402       .  A
C1717      H1724   1.084       .  S
C1718      S1720   1.804       .  S
S1719      H1722   1.406       .  S
S1720      H1721   1.407       .  S
C1725      C1726   1.405       .  A
C1725      C1730   1.418       .  A
C1726      C1727   1.401       .  A
C1726      H1735   1.084       .  S
C1727      C1728   1.417       .  A
C1727      S1731   1.805       .  S
C1728      C1729   1.402       .  A
C1729      C1730   1.398       .  A
C1729      H1736   1.083       .  S
C1730      S1732   1.806       .  S
S1731      H1734   1.403       .  S
S1732      H1733   1.407       .  S
C1737      C1738   1.403       .  A
C1737      C1742   1.417       .  A
C1738      C1739   1.399       .  A
C1738      H1747   1.084       .  S
C1739      C1740   1.415       .  A
C1739      S1743   1.804       .  S
C1740      C1741   1.403       .  A
C1741      C1742   1.402       .  A
C1741      H1748   1.084       .  S
C1742      S1744   1.804       .  S
S1743      H1746   1.406       .  S
S1744      H1745   1.407       .  S
C1749      C1750   1.404       .  A
C1749      C1754   1.415       .  A
C1750      C1751   1.401       .  A
C1750      H1759   1.084       .  S
C1751      C1752   1.416       .  A
C1751      S1755   1.805       .  S
C1752      C1753   1.404       .  A
C1753      C1754   1.400       .  A
C1753      H1760   1.084       .  S
C1754      S1756   1.803       .  S
S1755      H1758   1.407       .  S
S1756      H1757   1.405       .  S
C1761      C1762   1.406       .  A
C1761      C1766   1.411       .  A
C1762      C1763   1.396       .  A
C1762      H1771   1.084       .  S
C1763      C1764   1.408       .  A
C1763      S1767   1.796       .  S
C1764      C1765   1.403       .  A
C1765      C1766   1.393       .  A
C1765      H1772   1.084       .  S
C1766      S1768   1.804       .  S
S1767      H1770   1.406       .  S
S1768      H1769   1.406       .  S
C1773      C1774   1.399       .  A
C1773      C1778   1.411       .  A
C1774      C1775   1.395       .  A
C1774      H1783   1.084       .  S
C1775      C1776   1.414       .  A
C1775      S1779   1.805       .  S
C1776      C1777   1.401       .  A
C1777      C1778   1.392       .  A
C1777      H1784   1.084       .  S
C1778      S1780   1.802       .  S
S1779      H1782   1.406       .  S
S1780      H1781   1.406       .  S
C1785      C1786   1.404       .  A
C1785      C1790   1.412       .  A
C1786      C1787   1.402       .  A
C1786      H1795   1.084       .  S
C1787      C1788   1.412       .  A
C1787      S1791   1.804       .  S
C1788      C1789   1.400       .  A
C1789      C1790   1.394       .  A
C1789      H1796   1.079       .  S
C1790      S1792   1.806       .  S
S1791      H1794   1.406       .  S
S1792      H1793   1.405       .  S
C1797      C1798   1.402       .  A
C1797      C1802   1.411       .  A
C1798      C1799   1.401       .  A
C1798      H1807   1.084       .  S
C1799      C1800   1.412       .  A
C1799      S1803   1.805       .  S
C1800      C1801   1.400       .  A
C1801      C1802   1.396       .  A
C1801      H1808   1.084       .  S
C1802      S1804   1.802       .  S
S1803      H1806   1.404       .  S
S1804      H1805   1.404       .  S
C1809      C1810   1.403       .  A
C1809      C1814   1.413       .  A
C1810      C1811   1.400       .  A
C1810      H1819   1.084       .  S
C1811      C1812   1.416       .  A
C1811      S1815   1.804       .  S
C1812      C1813   1.406       .  A
C1813      C1814   1.400       .  A
C1813      H1820   1.084       .  S
C1814      S1816   1.804       .  S
S1815      H1818   1.407       .  S
S1816      H1817   1.407       .  S
C1821      C1822   1.404       .  A
C1821      C1826   1.415       .  A
C1822      C1823   1.401       .  A
C1822      H1831   1.084       .  S
C1823      C1824   1.415       .  A
C1823      S1827   1.803       .  S
C1824      C1825   1.404       .  A
C1825      C1826   1.400       .  A
C1825      H1832   1.084       .  S
C1826      S1828   1.804   1_655  S
S1827      H1830   1.408       .  S
S1828      H1829   1.406       .  S
C1833      C1834   1.405       .  A
C1833      C1838   1.418       .  A
C1834      C1835   1.398       .  A
C1834      H1843   1.083       .  S
C1835      C1836   1.418       .  A
C1835      S1839   1.804       .  S
C1836      C1837   1.405       .  A
C1837      C1838   1.404       .  A
C1837      H1844   1.084       .  S
C1838      S1840   1.804       .  S
S1839      H1842   1.396       .  S
S1840      H1841   1.407       .  S
C1845      C1846   1.404       .  A
C1845      C1850   1.420       .  A
C1846      C1847   1.402       .  A
C1846      H1855   1.084       .  S
C1847      C1848   1.416       .  A
C1847      S1851   1.802       .  S
C1848      C1849   1.399       .  A
C1849      C1850   1.391       .  A
C1849      H1856   1.084       .  S
C1850      S1852   1.804       .  S
S1851      H1854   1.408       .  S
S1852      H1853   1.404       .  S
C1857      C1858   1.403       .  A
C1857      C1862   1.413       .  A
C1858      C1859   1.395       .  A
C1858      H1867   1.084       .  S
C1859      C1860   1.411       .  A
C1859      S1863   1.801       .  S
C1860      C1861   1.403       .  A
C1861      C1862   1.397       .  A
C1861      H1868   1.084       .  S
C1862      S1864   1.805       .  S
S1863      H1866   1.405       .  S
S1864      H1865   1.406       .  S
C1869      C1870   1.403       .  A
C1869      C1874   1.411       .  A
C1870      C1871   1.392       .  A
C1870      H1879   1.084       .  S
C1871      C1872   1.412       .  A
C1871      S1875   1.806       .  S
C1872      C1873   1.403       .  A
C1873      C1874   1.402       .  A
C1873      H1880   1.083       .  S
C1874      S1876   1.808       .  S
S1875      H1878   1.402       .  S
S1876      H1877   1.407       .  S
C1881      C1882   1.402       .  A
C1881      C1886   1.416       .  A
C1882      C1883   1.393       .  A
C1882      H1891   1.084       .  S
C1883      C1884   1.411       .  A
C1883      S1887   1.804       .  S
C1884      C1885   1.400       .  A
C1885      C1886   1.397       .  A
C1885      H1892   1.084       .  S
C1886      S1888   1.805       .  S
S1887      H1890   1.406       .  S
S1888      H1889   1.406       .  S
C1893      C1894   1.404       .  A
C1893      C1898   1.412       .  A
C1894      C1895   1.407       .  A
C1894      H1903   1.084       .  S
C1895      C1896   1.415       .  A
C1895      S1899   1.804       .  S
C1896      C1897   1.399       .  A
C1897      C1898   1.396       .  A
C1897      H1904   1.079       .  S
C1898      S1900   1.805       .  S
S1899      H1902   1.405       .  S
S1900      H1901   1.404       .  S
C1905      C1906   1.401       .  A
C1905      C1910   1.413       .  A
C1906      C1907   1.401       .  A
C1906      H1915   1.084       .  S
C1907      C1908   1.418       .  A
C1907      S1911   1.805       .  S
C1908      C1909   1.406       .  A
C1909      C1910   1.404       .  A
C1909      H1916   1.084       .  S
C1910      S1912   1.804       .  S
S1911      H1914   1.407       .  S
S1912      H1913   1.406       .  S
C1917      C1918   1.408       .  A
C1917      C1922   1.417       .  A
C1918      C1919   1.402       .  A
C1918      H1927   1.083       .  S
C1919      C1920   1.412       .  A
C1919      S1923   1.800       .  S
C1920      C1921   1.400       .  A
C1921      C1922   1.396       .  A
C1921      H1928   1.081       .  S
C1922      S1924   1.809       .  S
S1923      H1926   1.406       .  S
S1924      H1925   1.407       .  S
C1929      C1930   1.405       .  A
C1929      C1934   1.416       .  A
C1930      C1931   1.399       .  A
C1930      H1939   1.084       .  S
C1931      C1932   1.411       .  A
C1931      S1935   1.804       .  S
C1932      C1933   1.400       .  A
C1933      C1934   1.395       .  A
C1933      H1940   1.084       .  S
C1934      S1936   1.805       .  S
S1935      H1938   1.407       .  S
S1936      H1937   1.407       .  S
C1941      C1942   1.404       .  A
C1941      C1946   1.409       .  A
C1942      C1943   1.399       .  A
C1942      H1951   1.084       .  S
C1943      C1944   1.413   1_565  A
C1943      S1947   1.804       .  S
C1944      C1945   1.404       .  A
C1945      C1946   1.396   1_545  A
C1945      H1952   1.084       .  S
C1946      S1948   1.790       .  S
S1947      H1950   1.406       .  S
S1948      H1949   1.408       .  S
C1953      C1954   1.404       .  A
C1953      C1958   1.414       .  A
C1954      C1955   1.396       .  A
C1954      H1963   1.084       .  S
C1955      C1956   1.412       .  A
C1955      S1959   1.804       .  S
C1956      C1957   1.405       .  A
C1957      C1958   1.401       .  A
C1957      H1964   1.084       .  S
C1958      S1960   1.804       .  S
S1959      H1962   1.407       .  S
S1960      H1961   1.406       .  S
C1965      C1966   1.404       .  A
C1965      C1970   1.416       .  A
C1966      C1967   1.395       .  A
C1966      H1975   1.084       .  S
C1967      C1968   1.416       .  A
C1967      S1971   1.806       .  S
C1968      C1969   1.402       .  A
C1969      C1970   1.398       .  A
C1969      H1976   1.084       .  S
C1970      S1972   1.805       .  S
S1971      H1974   1.396       .  S
S1972      H1973   1.407       .  S
C1977      C1978   1.406       .  A
C1977      C1982   1.414       .  A
C1978      C1979   1.399       .  A
C1978      H1987   1.084       .  S
C1979      C1980   1.414       .  A
C1979      S1983   1.806       .  S
C1980      C1981   1.403       .  A
C1981      C1982   1.398       .  A
C1981      H1988   1.084       .  S
C1982      S1984   1.804       .  S
S1983      H1986   1.401       .  S
S1984      H1985   1.407       .  S
C1989      C1990   1.407       .  A
C1989      C1994   1.414       .  A
C1990      C1991   1.395       .  A
C1990      H1999   1.083   1_565  S
C1991      C1992   1.417       .  A
C1991      S1995   1.806       .  S
C1992      C1993   1.404       .  A
C1993      C1994   1.396       .  A
C1993      H2000   1.084       .  S
C1994      S1996   1.805       .  S
S1995      H1998   1.389       .  S
S1996      H1997   1.407       .  S
C2001      C2002   1.404       .  A
C2001      C2006   1.418       .  A
C2002      C2003   1.396       .  A
C2002      H2011   1.084       .  S
C2003      C2004   1.414       .  A
C2003      S2007   1.801       .  S
C2004      C2005   1.406       .  A
C2005      C2006   1.406       .  A
C2005      H2012   1.084       .  S
C2006      S2008   1.802       .  S
S2007      H2010   1.406       .  S
S2008      H2009   1.407       .  S
C2013      C2014   1.404       .  A
C2013      C2018   1.416       .  A
C2014      C2015   1.388       .  A
C2014      H2023   1.084       .  S
C2015      C2016   1.410       .  A
C2015      S2019   1.804       .  S
C2016      C2017   1.402       .  A
C2017      C2018   1.404       .  A
C2017      H2024   1.083       .  S
C2018      S2020   1.805       .  S
S2019      H2022   1.406       .  S
S2020      H2021   1.407       .  S
C2025      C2026   1.398       .  A
C2025      C2030   1.405       .  A
C2026      C2027   1.398       .  A
C2026      H2035   1.085       .  S
C2027      C2028   1.423       .  A
C2027      S2031   1.799       .  S
C2028      C2029   1.410       .  A
C2029      C2030   1.393       .  A
C2029      H2036   1.083       .  S
C2030      S2032   1.800       .  S
S2031      H2034   1.407       .  S
S2032      H2033   1.406       .  S
C2037      C2038   1.402       .  A
C2037      C2042   1.410       .  A
C2038      C2039   1.403       .  A
C2038      H2047   1.084       .  S
C2039      C2040   1.422       .  A
C2039      S2043   1.800       .  S
C2040      C2041   1.406       .  A
C2041      C2042   1.389       .  A
C2041      H2048   1.083       .  S
C2042      S2044   1.801       .  S
S2043      H2046   1.407       .  S
S2044      H2045   1.402       .  S
C2049      C2050   1.407       .  A
C2049      C2054   1.418       .  A
C2050      C2051   1.405       .  A
C2050      H2059   1.084       .  S
C2051      C2052   1.416       .  A
C2051      S2055   1.801       .  S
C2052      C2053   1.405       .  A
C2053      C2054   1.400       .  A
C2053      H2060   1.082       .  S
C2054      S2056   1.812       .  S
S2055      H2058   1.408       .  S
S2056      H2057   1.407       .  S
C2061      C2062   1.400       .  A
C2061      C2066   1.418       .  A
C2062      C2063   1.402       .  A
C2062      H2071   1.084       .  S
C2063      C2064   1.423       .  A
C2063      S2067   1.800       .  S
C2064      C2065   1.403       .  A
C2065      C2066   1.395       .  A
C2065      H2072   1.082       .  S
C2066      S2068   1.812       .  S
S2067      H2070   1.408       .  S
S2068      H2069   1.407       .  S
C2073      C2074   1.406       .  A
C2073      C2078   1.419       .  A
C2074      C2075   1.394       .  A
C2074      H2083   1.084       .  S
C2075      C2076   1.412       .  A
C2075      S2079   1.803       .  S
C2076      C2077   1.404       .  A
C2077      C2078   1.404       .  A
C2077      H2084   1.082       .  S
C2078      S2080   1.807       .  S
S2079      H2082   1.406       .  S
S2080      H2081   1.407       .  S
C2085      C2086   1.405       .  A
C2085      C2090   1.411       .  A
C2086      C2087   1.410       .  A
C2086      H2095   1.084       .  S
C2087      C2088   1.422       .  A
C2087      S2091   1.801       .  S
C2088      C2089   1.406       .  A
C2089      C2090   1.388       .  A
C2089      H2096   1.084       .  S
C2090      S2092   1.800       .  S
S2091      H2094   1.408       .  S
S2092      H2093   1.404       .  S
C2097      C2098   1.402       .  A
C2097      C2102   1.417       .  A
C2098      C2099   1.397       .  A
C2098      H2107   1.084       .  S
C2099      C2100   1.417       .  A
C2099      S2103   1.805       .  S
C2100      C2101   1.401       .  A
C2101      C2102   1.401       .  A
C2101      H2108   1.083       .  S
C2102      S2104   1.804       .  S
S2103      H2106   1.403       .  S
S2104      H2105   1.407       .  S
C2109      C2110   1.404       .  A
C2109      C2114   1.418       .  A
C2110      C2111   1.400       .  A
C2110      H2119   1.084       .  S
C2111      C2112   1.412       .  A
C2111      S2115   1.804       .  S
C2112      C2113   1.400       .  A
C2113      C2114   1.398       .  A
C2113      H2120   1.084       .  S
C2114      S2116   1.805       .  S
S2115      H2118   1.407       .  S
S2116      H2117   1.407       .  S
C2121      C2122   1.401       .  A
C2121      C2126   1.419       .  A
C2122      C2123   1.397       .  A
C2122      H2131   1.084       .  S
C2123      C2124   1.418       .  A
C2123      S2127   1.805       .  S
C2124      C2125   1.403       .  A
C2125      C2126   1.405       .  A
C2125      H2132   1.084       .  S
C2126      S2128   1.804       .  S
S2127      H2130   1.403       .  S
S2128      H2129   1.407       .  S
C2133      C2134   1.404       .  A
C2133      C2138   1.414       .  A
C2134      C2135   1.396       .  A
C2134      H2143   1.084       .  S
C2135      C2136   1.414       .  A
C2135      S2139   1.805       .  S
C2136      C2137   1.402       .  A
C2137      C2138   1.395       .  A
C2137      H2144   1.084       .  S
C2138      S2140   1.805       .  S
S2139      H2142   1.403       .  S
S2140      H2141   1.407       .  S
C2145      C2146   1.401       .  A
C2145      C2150   1.417       .  A
C2146      C2147   1.399       .  A
C2146      H2155   1.084   1_556  S
C2147      C2148   1.417       .  A
C2147      S2151   1.804       .  S
C2148      C2149   1.402       .  A
C2149      C2150   1.403       .  A
C2149      H2156   1.084       .  S
C2150      S2152   1.804       .  S
S2151      H2154   1.405       .  S
S2152      H2153   1.407       .  S
C2157      C2158   1.401       .  A
C2157      C2162   1.413       .  A
C2158      C2159   1.395       .  A
C2158      H2167   1.084       .  S
C2159      C2160   1.409       .  A
C2159      S2163   1.804       .  S
C2160      C2161   1.401       .  A
C2161      C2162   1.398       .  A
C2161      H2168   1.085       .  S
C2162      S2164   1.808       .  S
S2163      H2166   1.405       .  S
S2164      H2165   1.401       .  S
C2169      C2170   1.401       .  A
C2169      C2174   1.419       .  A
C2170      C2171   1.393       .  A
C2170      H2179   1.084       .  S
C2171      C2172   1.419       .  A
C2171      S2175   1.802       .  S
C2172      C2173   1.405       .  A
C2173      C2174   1.406       .  A
C2173      H2180   1.084       .  S
C2174      S2176   1.804       .  S
S2175      H2178   1.408       .  S
S2176      H2177   1.407       .  S
C2181      C2182   1.403       .  A
C2181      C2186   1.417       .  A
C2182      C2183   1.397       .  A
C2182      H2191   1.081       .  S
C2183      C2184   1.415       .  A
C2183      S2187   1.805       .  S
C2184      C2185   1.404       .  A
C2185      C2186   1.400       .  A
C2185      H2192   1.084       .  S
C2186      S2188   1.804       .  S
S2187      H2190   1.407       .  S
S2188      H2189   1.406       .  S
C2193      C2194   1.407       .  A
C2193      C2198   1.419       .  A
C2194      C2195   1.401       .  A
C2194      H2203   1.083       .  S
C2195      C2196   1.416       .  A
C2195      S2199   1.805       .  S
C2196      C2197   1.404       .  A
C2197      C2198   1.404       .  A
C2197      H2204   1.084       .  S
C2198      S2200   1.804       .  S
S2199      H2202   1.400       .  S
S2200      H2201   1.407       .  S
C2205      C2206   1.405       .  A
C2205      C2210   1.419       .  A
C2206      C2207   1.401       .  A
C2206      H2215   1.084       .  S
C2207      C2208   1.417       .  A
C2207      S2211   1.806       .  S
C2208      C2209   1.404       .  A
C2209      C2210   1.405       .  A
C2209      H2216   1.084       .  S
C2210      S2212   1.804       .  S
S2211      H2214   1.401       .  S
S2212      H2213   1.407       .  S
C2217      C2218   1.404       .  A
C2217      C2222   1.410       .  A
C2218      C2219   1.405       .  A
C2218      H2227   1.084       .  S
C2219      C2220   1.414       .  A
C2219      S2223   1.806       .  S
C2220      C2221   1.401       .  A
C2221      C2222   1.397       .  A
C2221      H2228   1.084       .  S
C2222      S2224   1.800       .  S
S2223      H2226   1.403       .  S
S2224      H2225   1.405       .  S
C2229      C2230   1.409       .  A
C2229      C2234   1.417       .  A
C2230      C2231   1.401       .  A
C2230      H2239   1.084       .  S
C2231      C2232   1.413       .  A
C2231      S2235   1.803       .  S
C2232      C2233   1.405       .  A
C2233      C2234   1.405       .  A
C2233      H2240   1.084       .  S
C2234      S2236   1.804       .  S
S2235      H2238   1.406       .  S
S2236      H2237   1.407       .  S
C2241      C2242   1.402       .  A
C2241      C2246   1.422       .  A
C2242      C2243   1.395       .  A
C2242      H2251   1.084       .  S
C2243      C2244   1.417       .  A
C2243      S2247   1.806       .  S
C2244      C2245   1.398       .  A
C2245      C2246   1.398       .  A
C2245      H2252   1.084       .  S
C2246      S2248   1.803       .  S
S2247      H2250   1.407       .  S
S2248      H2249   1.400       .  S
C2253      C2254   1.417       .  A
C2253      C2258   1.415       .  A
C2254      C2255   1.409       .  A
C2254      H2263   1.083       .  S
C2255      C2256   1.407       .  A
C2255      S2259   1.801       .  S
C2256      C2257   1.408       .  A
C2257      C2258   1.392       .  A
C2257      H2264   1.083       .  S
C2258      S2260   1.813       .  S
S2259      H2262   1.406       .  S
S2260      H2261   1.407       .  S
C2265      C2266   1.405       .  A
C2265      C2270   1.413       .  A
C2266      C2267   1.396       .  A
C2266      H2275   1.084       .  S
C2267      C2268   1.408       .  A
C2267      S2271   1.800       .  S
C2268      C2269   1.403       .  A
C2269      C2270   1.398       .  A
C2269      H2276   1.084       .  S
C2270      S2272   1.804       .  S
S2271      H2274   1.406       .  S
S2272      H2273   1.406       .  S
C2277      C2278   1.401       .  A
C2277      C2282   1.417       .  A
C2278      C2279   1.397       .  A
C2278      H2287   1.084       .  S
C2279      C2280   1.414       .  A
C2279      S2283   1.804       .  S
C2280      C2281   1.400       .  A
C2281      C2282   1.398       .  A
C2281      H2288   1.084       .  S
C2282      S2284   1.805       .  S
S2283      H2286   1.405       .  S
S2284      H2285   1.407       .  S
C2289      C2290   1.406       .  A
C2289      C2294   1.417       .  A
C2290      C2291   1.399       .  A
C2290      H2299   1.084   1_554  S
C2291      C2292   1.415       .  A
C2291      S2295   1.805       .  S
C2292      C2293   1.402       .  A
C2293      C2294   1.401       .  A
C2293      H2300   1.084       .  S
C2294      S2296   1.804       .  S
S2295      H2298   1.401       .  S
S2296      H2297   1.407       .  S
C2301      C2302   1.404       .  A
C2301      C2306   1.424       .  A
C2302      C2303   1.397       .  A
C2302      H2311   1.084       .  S
C2303      C2304   1.417       .  A
C2303      S2307   1.802       .  S
C2304      C2305   1.398       .  A
C2305      C2306   1.401       .  A
C2305      H2312   1.083       .  S
C2306      S2308   1.806       .  S
S2307      H2310   1.406       .  S
S2308      H2309   1.407       .  S
C2313      C2314   1.404       .  A
C2313      C2318   1.417       .  A
C2314      C2315   1.400       .  A
C2314      H2323   1.084       .  S
C2315      C2316   1.415       .  A
C2315      S2319   1.803       .  S
C2316      C2317   1.404       .  A
C2317      C2318   1.403       .  A
C2317      H2324   1.084       .  S
C2318      S2320   1.804       .  S
S2319      H2322   1.407       .  S
S2320      H2321   1.406       .  S
C2325      C2326   1.401       .  A
C2325      C2330   1.412       .  A
C2326      C2327   1.403       .  A
C2326      H2335   1.084       .  S
C2327      C2328   1.417       .  A
C2327      S2331   1.805       .  S
C2328      C2329   1.397       .  A
C2329      C2330   1.391       .  A
C2329      H2336   1.079       .  S
C2330      S2332   1.805       .  S
S2331      H2334   1.401       .  S
S2332      H2333   1.405       .  S
C2337      C2338   1.404       .  A
C2337      C2342   1.418       .  A
C2338      C2339   1.403       .  A
C2338      H2347   1.084       .  S
C2339      C2340   1.415       .  A
C2339      S2343   1.803       .  S
C2340      C2341   1.402       .  A
C2341      C2342   1.400       .  A
C2341      H2348   1.084       .  S
C2342      S2344   1.805       .  S
S2343      H2346   1.407       .  S
S2344      H2345   1.407       .  S
C2349      C2350   1.403       .  A
C2349      C2354   1.417       .  A
C2350      C2351   1.393       .  A
C2350      H2359   1.084   1_554  S
C2351      C2352   1.414       .  A
C2351      S2355   1.805       .  S
C2352      C2353   1.404       .  A
C2353      C2354   1.404       .  A
C2353      H2360   1.084       .  S
C2354      S2356   1.803       .  S
S2355      H2358   1.401       .  S
S2356      H2357   1.406       .  S
C2361      C2362   1.404       .  A
C2361      C2366   1.414       .  A
C2362      C2363   1.402       .  A
C2362      H2371   1.084       .  S
C2363      C2364   1.412       .  A
C2363      S2367   1.804       .  S
C2364      C2365   1.402       .  A
C2365      C2366   1.399       .  A
C2365      H2372   1.084       .  S
C2366      S2368   1.805       .  S
S2367      H2370   1.405       .  S
S2368      H2369   1.407       .  S
C2373      C2374   1.404       .  A
C2373      C2378   1.414       .  A
C2374      C2375   1.400       .  A
C2374      H2383   1.084       .  S
C2375      C2376   1.417       .  A
C2375      S2379   1.805       .  S
C2376      C2377   1.409       .  A
C2377      C2378   1.407       .  A
C2377      H2384   1.084       .  S
C2378      S2380   1.803       .  S
S2379      H2382   1.407       .  S
S2380      H2381   1.407       .  S
C2385      C2386   1.406       .  A
C2385      C2390   1.419       .  A
C2386      C2387   1.401       .  A
C2386      H2395   1.084       .  S
C2387      C2388   1.420       .  A
C2387      S2391   1.804       .  S
C2388      C2389   1.406       .  A
C2389      C2390   1.408       .  A
C2389      H2396   1.084       .  S
C2390      S2392   1.803       .  S
S2391      H2394   1.398       .  S
S2392      H2393   1.407       .  S
C2397      C2398   1.405       .  A
C2397      C2402   1.417       .  A
C2398      C2399   1.403       .  A
C2398      H2407   1.084       .  S
C2399      C2400   1.416       .  A
C2399      S2403   1.804       .  S
C2400      C2401   1.404       .  A
C2401      C2402   1.404       .  A
C2401      H2408   1.084       .  S
C2402      S2404   1.804       .  S
S2403      H2406   1.407       .  S
S2404      H2405   1.407       .  S
C2409      C2410   1.407       .  A
C2409      C2414   1.417       .  A
C2410      C2411   1.393       .  A
C2410      H2419   1.084       .  S
C2411      C2412   1.406       .  A
C2411      S2415   1.804   1_554  S
C2412      C2413   1.399       .  A
C2413      C2414   1.401       .  A
C2413      H2420   1.083       .  S
C2414      S2416   1.808       .  S
S2415      H2418   1.406       .  S
S2416      H2417   1.407       .  S
C2421      C2422   1.398       .  A
C2421      C2426   1.415       .  A
C2422      C2423   1.389       .  A
C2422      H2431   1.085       .  S
C2423      C2424   1.412       .  A
C2423      S2427   1.806       .  S
C2424      C2425   1.402       .  A
C2425      C2426   1.404       .  A
C2425      H2432   1.084       .  S
C2426      S2428   1.802       .  S
S2427      H2430   1.407       .  S
S2428      H2429   1.406       .  S
C2433      C2434   1.402       .  A
C2433      C2438   1.413       .  A
C2434      C2435   1.400       .  A
C2434      H2443   1.084       .  S
C2435      C2436   1.414       .  A
C2435      S2439   1.802       .  S
C2436      C2437   1.397       .  A
C2437      C2438   1.393       .  A
C2437      H2444   1.083       .  S
C2438      S2440   1.796       .  S
S2439      H2442   1.404       .  S
S2440      H2441   1.407       .  S
C2445      C2446   1.398       .  A
C2445      C2450   1.410       .  A
C2446      C2447   1.393       .  A
C2446      H2455   1.085       .  S
C2447      C2448   1.417       .  A
C2447      S2451   1.802       .  S
C2448      C2449   1.405       .  A
C2449      C2450   1.401       .  A
C2449      H2456   1.084       .  S
C2450      S2452   1.803       .  S
S2451      H2454   1.407       .  S
S2452      H2453   1.407       .  S
C2457      C2458   1.400       .  A
C2457      C2462   1.418       .  A
C2458      C2459   1.394       .  A
C2458      H2467   1.084       .  S
C2459      C2460   1.415       .  A
C2459      S2463   1.806       .  S
C2460      C2461   1.400       .  A
C2461      C2462   1.400       .  A
C2461      H2468   1.084       .  S
C2462      S2464   1.805       .  S
S2463      H2466   1.407       .  S
S2464      H2465   1.403       .  S
C2469      C2470   1.407       .  A
C2469      C2474   1.411       .  A
C2470      C2471   1.395       .  A
C2470      H2479   1.083       .  S
C2471      C2472   1.412       .  A
C2471      S2475   1.800       .  S
C2472      C2473   1.412       .  A
C2473      C2474   1.405       .  A
C2473      H2480   1.084       .  S
C2474      S2476   1.801       .  S
S2475      H2478   1.408       .  S
S2476      H2477   1.407       .  S
C2481      C2482   1.403       .  A
C2481      C2486   1.408       .  A
C2482      C2483   1.405       .  A
C2482      H2491   1.084       .  S
C2483      C2484   1.421       .  A
C2483      S2487   1.800       .  S
C2484      C2485   1.407       .  A
C2485      C2486   1.394       .  A
C2485      H2492   1.083       .  S
C2486      S2488   1.798       .  S
S2487      H2490   1.408       .  S
S2488      H2489   1.407       .  S
C2493      C2494   1.404       .  A
C2493      C2498   1.411       .  A
C2494      C2495   1.398       .  A
C2494      H2503   1.083       .  S
C2495      C2496   1.415       .  A
C2495      S2499   1.811       .  S
C2496      C2497   1.407       .  A
C2497      C2498   1.396       .  A
C2497      H2504   1.084       .  S
C2498      S2500   1.803       .  S
S2499      H2502   1.406       .  S
S2500      H2501   1.408       .  S
C2505      C2506   1.411       .  A
C2505      C2510   1.419       .  A
C2506      C2507   1.393       .  A
C2506      H2515   1.083       .  S
C2507      C2508   1.411       .  A
C2507      S2511   1.803       .  S
C2508      C2509   1.406       .  A
C2509      C2510   1.401       .  A
C2509      H2516   1.084       .  S
C2510      S2512   1.802       .  S
S2511      H2514   1.407       .  S
S2512      H2513   1.408       .  S
C2517      C2518   1.404       .  A
C2517      C2522   1.404       .  A
C2518      C2519   1.399       .  A
C2518      H2527   1.082       .  S
C2519      C2520   1.407       .  A
C2519      S2523   1.803       .  S
C2520      C2521   1.403       .  A
C2521      C2522   1.392       .  A
C2521      H2528   1.081       .  S
C2522      S2524   1.804       .  S
S2523      H2526   1.403   1_455  S
S2524      H2525   1.406       .  S
C2529      C2530   1.409       .  A
C2529      C2534   1.418       .  A
C2530      C2531   1.407       .  A
C2530      H2539   1.083       .  S
C2531      C2532   1.415       .  A
C2531      S2535   1.802       .  S
C2532      C2533   1.400       .  A
C2533      C2534   1.398       .  A
C2533      H2540   1.082       .  S
C2534      S2536   1.799       .  S
S2535      H2538   1.406       .  S
S2536      H2537   1.407       .  S
C2541      C2542   1.404       .  A
C2541      C2546   1.415       .  A
C2542      C2543   1.395       .  A
C2542      H2551   1.084       .  S
C2543      C2544   1.410       .  A
C2543      S2547   1.798       .  S
C2544      C2545   1.403       .  A
C2545      C2546   1.402       .  A
C2545      H2552   1.084       .  S
C2546      S2548   1.803       .  S
S2547      H2550   1.406       .  S
S2548      H2549   1.406       .  S
C2553      C2554   1.404       .  A
C2553      C2558   1.417       .  A
C2554      C2555   1.396       .  A
C2554      H2563   1.084   1_545  S
C2555      C2556   1.411       .  A
C2555      S2559   1.800       .  S
C2556      C2557   1.402       .  A
C2557      C2558   1.403       .  A
C2557      H2564   1.084       .  S
C2558      S2560   1.802       .  S
S2559      H2562   1.405       .  S
S2560      H2561   1.406       .  S
C2565      C2566   1.405       .  A
C2565      C2570   1.416       .  A
C2566      C2567   1.397       .  A
C2566      H2575   1.084       .  S
C2567      C2568   1.411       .  A
C2567      S2571   1.796       .  S
C2568      C2569   1.406       .  A
C2569      C2570   1.404       .  A
C2569      H2576   1.084       .  S
C2570      S2572   1.803       .  S
S2571      H2574   1.406       .  S
S2572      H2573   1.406       .  S
C2577      C2578   1.403       .  A
C2577      C2582   1.410       .  A
C2578      C2579   1.407       .  A
C2578      H2587   1.084       .  S
C2579      C2580   1.417       .  A
C2579      S2583   1.807       .  S
C2580      C2581   1.395       .  A
C2581      C2582   1.389       .  A
C2581      H2588   1.082       .  S
C2582      S2584   1.800       .  S
S2583      H2586   1.400       .  S
S2584      H2585   1.403       .  S
C2589      C2590   1.403       .  A
C2589      C2594   1.414       .  A
C2590      C2591   1.401       .  A
C2590      H2599   1.084       .  S
C2591      C2592   1.417       .  A
C2591      S2595   1.804       .  S
C2592      C2593   1.407       .  A
C2593      C2594   1.404       .  A
C2593      H2600   1.084       .  S
C2594      S2596   1.804       .  S
S2595      H2598   1.406       .  S
S2596      H2597   1.407       .  S
C2601      C2602   1.402       .  A
C2601      C2606   1.411       .  A
C2602      C2603   1.400       .  A
C2602      H2611   1.084       .  S
C2603      C2604   1.414       .  A
C2603      S2607   1.804       .  S
C2604      C2605   1.402       .  A
C2605      C2606   1.397       .  A
C2605      H2612   1.085       .  S
C2606      S2608   1.805       .  S
S2607      H2610   1.401       .  S
S2608      H2609   1.405       .  S
C2613      C2614   1.404       .  A
C2613      C2618   1.414       .  A
C2614      C2615   1.397       .  A
C2614      H2623   1.084       .  S
C2615      C2616   1.410       .  A
C2615      S2619   1.804       .  S
C2616      C2617   1.402       .  A
C2617      C2618   1.399       .  A
C2617      H2624   1.084       .  S
C2618      S2620   1.804       .  S
S2619      H2622   1.407       .  S
S2620      H2621   1.407       .  S
C2625      C2626   1.405       .  A
C2625      C2630   1.417       .  A
C2626      C2627   1.404       .  A
C2626      H2635   1.083       .  S
C2627      C2628   1.418       .  A
C2627      S2631   1.803   1_545  S
C2628      C2629   1.406       .  A
C2629      C2630   1.397       .  A
C2629      H2636   1.084       .  S
C2630      S2632   1.807       .  S
S2631      H2634   1.407       .  S
S2632      H2633   1.399       .  S
C2637      C2638   1.400       .  A
C2637      C2642   1.414       .  A
C2638      C2639   1.398       .  A
C2638      H2647   1.084       .  S
C2639      C2640   1.415       .  A
C2639      S2643   1.801       .  S
C2640      C2641   1.405       .  A
C2641      C2642   1.406       .  A
C2641      H2648   1.084       .  S
C2642      S2644   1.804       .  S
S2643      H2646   1.405       .  S
S2644      H2645   1.406       .  S
C2649      C2650   1.404       .  A
C2649      C2654   1.417       .  A
C2650      C2651   1.393       .  A
C2650      H2659   1.083       .  S
C2651      C2652   1.416       .  A
C2651      S2655   1.799       .  S
C2652      C2653   1.404       .  A
C2653      C2654   1.399       .  A
C2653      H2660   1.084       .  S
C2654      S2656   1.803       .  S
S2655      H2658   1.408       .  S
S2656      H2657   1.407       .  S
C2661      C2662   1.402       .  A
C2661      C2666   1.412       .  A
C2662      C2663   1.400       .  A
C2662      H2671   1.084       .  S
C2663      C2664   1.416       .  A
C2663      S2667   1.804       .  S
C2664      C2665   1.405       .  A
C2665      C2666   1.397       .  A
C2665      H2672   1.084       .  S
C2666      S2668   1.804       .  S
S2667      H2670   1.407       .  S
S2668      H2669   1.403       .  S
C2673      C2674   1.403       .  A
C2673      C2678   1.414       .  A
C2674      C2675   1.397       .  A
C2674      H2683   1.084       .  S
C2675      C2676   1.412       .  A
C2675      S2679   1.804       .  S
C2676      C2677   1.401       .  A
C2677      C2678   1.397       .  A
C2677      H2684   1.084       .  S
C2678      S2680   1.804       .  S
S2679      H2682   1.406       .  S
S2680      H2681   1.406       .  S
C2685      C2686   1.404       .  A
C2685      C2690   1.407       .  A
C2686      C2687   1.406       .  A
C2686      H2695   1.084       .  S
C2687      C2688   1.420       .  A
C2687      S2691   1.799       .  S
C2688      C2689   1.411       .  A
C2689      C2690   1.400       .  A
C2689      H2696   1.083       .  S
C2690      S2692   1.804       .  S
S2691      H2694   1.408       .  S
S2692      H2693   1.406       .  S
C2697      C2698   1.404       .  A
C2697      C2702   1.419       .  A
C2698      C2699   1.394       .  A
C2698      H2707   1.082       .  S
C2699      C2700   1.412       .  A
C2699      S2703   1.804       .  S
C2700      C2701   1.401       .  A
C2701      C2702   1.400       .  A
C2701      H2708   1.082       .  S
C2702      S2704   1.810       .  S
S2703      H2706   1.407       .  S
S2704      H2705   1.407       .  S
C2709      C2710   1.404       .  A
C2709      C2714   1.411       .  A
C2710      C2711   1.405       .  A
C2710      H2719   1.083       .  S
C2711      C2712   1.416       .  A
C2711      S2715   1.808       .  S
C2712      C2713   1.403       .  A
C2713      C2714   1.401       .  A
C2713      H2720   1.085       .  S
C2714      S2716   1.803       .  S
S2715      H2718   1.400       .  S
S2716      H2717   1.407       .  S
C2721      C2722   1.404       .  A
C2721      C2726   1.407       .  A
C2722      C2723   1.396       .  A
C2722      H2731   1.084       .  S
C2723      C2724   1.418       .  A
C2723      S2727   1.802       .  S
C2724      C2725   1.411       .  A
C2725      C2726   1.397       .  A
C2725      H2732   1.083       .  S
C2726      S2728   1.803       .  S
S2727      H2730   1.408       .  S
S2728      H2729   1.407       .  S
C2733      C2734   1.411       .  A
C2733      C2738   1.416       .  A
C2734      C2735   1.406       .  A
C2734      H2743   1.083       .  S
C2735      C2736   1.414       .  A
C2735      S2739   1.798       .  S
C2736      C2737   1.410       .  A
C2737      C2738   1.399       .  A
C2737      H2744   1.084       .  S
C2738      S2740   1.803       .  S
S2739      H2742   1.404       .  S
S2740      H2741   1.407       .  S
C2745      C2746   1.403       .  A
C2745      C2750   1.414       .  A
C2746      C2747   1.391       .  A
C2746      H2755   1.085       .  S
C2747      C2748   1.413       .  A
C2747      S2751   1.802       .  S
C2748      C2749   1.410       .  A
C2749      C2750   1.411       .  A
C2749      H2756   1.083       .  S
C2750      S2752   1.803       .  S
S2751      H2754   1.407       .  S
S2752      H2753   1.403       .  S
C2757      C2758   1.402       .  A
C2757      C2762   1.406       .  A
C2758      C2759   1.402       .  A
C2758      H2767   1.084       .  S
C2759      C2760   1.420       .  A
C2759      S2763   1.801       .  S
C2760      C2761   1.412       .  A
C2761      C2762   1.398       .  A
C2761      H2768   1.083       .  S
C2762      S2764   1.803       .  S
S2763      H2766   1.408       .  S
S2764      H2765   1.405       .  S
C2769      C2770   1.411       .  A
C2769      C2774   1.409       .  A
C2770      C2771   1.401       .  A
C2770      H2779   1.084       .  S
C2771      C2772   1.411       .  A
C2771      S2775   1.802       .  S
C2772      C2773   1.407       .  A
C2773      C2774   1.396       .  A
C2773      H2780   1.084       .  S
C2774      S2776   1.791       .  S
S2775      H2778   1.407       .  S
S2776      H2777   1.407       .  S
C2781      C2782   1.400       .  A
C2781      C2786   1.415       .  A
C2782      C2783   1.399       .  A
C2782      H2791   1.084       .  S
C2783      C2784   1.415       .  A
C2783      S2787   1.803       .  S
C2784      C2785   1.401       .  A
C2785      C2786   1.400       .  A
C2785      H2792   1.084       .  S
C2786      S2788   1.809       .  S
S2787      H2790   1.400       .  S
S2788      H2789   1.403       .  S
C2793      C2794   1.411       .  A
C2793      C2798   1.418       .  A
C2794      C2795   1.394       .  A
C2794      H2803   1.083       .  S
C2795      C2796   1.411       .  A
C2795      S2799   1.808       .  S
C2796      C2797   1.402       .  A
C2797      C2798   1.399       .  A
C2797      H2804   1.084       .  S
C2798      S2800   1.795       .  S
S2799      H2802   1.400       .  S
S2800      H2801   1.406       .  S
C2805      C2806   1.404       .  A
C2805      C2810   1.410       .  A
C2806      C2807   1.391       .  A
C2806      H2815   1.085       .  S
C2807      C2808   1.410       .  A
C2807      S2811   1.804       .  S
C2808      C2809   1.407       .  A
C2809      C2810   1.401       .  A
C2809      H2816   1.084       .  S
C2810      S2812   1.802       .  S
S2811      H2814   1.408       .  S
S2812      H2813   1.406       .  S
C2817      C2818   1.397       .  A
C2817      C2822   1.408       .  A
C2818      C2819   1.397       .  A
C2818      H2827   1.084       .  S
C2819      C2820   1.418       .  A
C2819      S2823   1.804       .  S
C2820      C2821   1.403       .  A
C2821      C2822   1.399       .  A
C2821      H2828   1.083       .  S
C2822      S2824   1.805       .  S
S2823      H2826   1.406       .  S
S2824      H2825   1.407       .  S
C2829      C2830   1.400       .  A
C2829      C2834   1.412       .  A
C2830      C2831   1.395       .  A
C2830      H2839   1.084       .  S
C2831      C2832   1.415       .  A
C2831      S2835   1.804       .  S
C2832      C2833   1.402       .  A
C2833      C2834   1.392       .  A
C2833      H2840   1.084       .  S
C2834      S2836   1.806       .  S
S2835      H2838   1.403       .  S
S2836      H2837   1.408       .  S
C2841      C2842   1.408       .  A
C2841      C2846   1.425       .  A
C2842      C2843   1.406       .  A
C2842      H2851   1.084       .  S
C2843      C2844   1.418       .  A
C2843      S2847   1.799       .  S
C2844      C2845   1.401       .  A
C2845      C2846   1.399       .  A
C2845      H2852   1.084       .  S
C2846      S2848   1.802       .  S
S2847      H2850   1.407       .  S
S2848      H2849   1.408       .  S
C2853      C2854   1.402       .  A
C2853      C2858   1.403       .  A
C2854      C2855   1.398       .  A
C2854      H2863   1.085       .  S
C2855      C2856   1.414       .  A
C2855      S2859   1.800       .  S
C2856      C2857   1.407       .  A
C2857      C2858   1.393       .  A
C2857      H2864   1.083       .  S
C2858      S2860   1.800       .  S
S2859      H2862   1.407       .  S
S2860      H2861   1.404       .  S
C2865      C2866   1.401       .  A
C2865      C2870   1.419       .  A
C2866      C2867   1.397       .  A
C2866      H2875   1.082       .  S
C2867      C2868   1.420       .  A
C2867      S2871   1.812       .  S
C2868      C2869   1.401       .  A
C2869      C2870   1.403       .  A
C2869      H2876   1.080       .  S
C2870      S2872   1.799       .  S
S2871      H2874   1.407       .  S
S2872      H2873   1.407       .  S
C2877      C2878   1.401       .  A
C2877      C2882   1.416       .  A
C2878      C2879   1.406       .  A
C2878      H2887   1.084       .  S
C2879      C2880   1.421       .  A
C2879      S2883   1.797       .  S
C2880      C2881   1.402       .  A
C2881      C2882   1.397       .  A
C2881      H2888   1.084       .  S
C2882      S2884   1.799       .  S
S2883      H2886   1.407       .  S
S2884      H2885   1.406       .  S
C2889      C2890   1.409       .  A
C2889      C2894   1.410       .  A
C2890      C2891   1.400       .  A
C2890      H2899   1.084       .  S
C2891      C2892   1.409       .  A
C2891      S2895   1.803       .  S
C2892      C2893   1.403       .  A
C2893      C2894   1.395       .  A
C2893      H2900   1.085       .  S
C2894      S2896   1.794       .  S
S2895      H2898   1.406       .  S
S2896      H2897   1.407       .  S
C2901      C2902   1.404       .  A
C2901      C2906   1.423       .  A
C2902      C2903   1.400       .  A
C2902      H2911   1.084       .  S
C2903      C2904   1.411       .  A
C2903      S2907   1.801       .  S
C2904      C2905   1.397       .  A
C2905      C2906   1.398       .  A
C2905      H2912   1.085       .  S
C2906      S2908   1.807       .  S
S2907      H2910   1.405       .  S
S2908      H2909   1.396       .  S
C2913      C2914   1.409       .  A
C2913      C2918   1.421       .  A
C2914      C2915   1.403       .  A
C2914      H2923   1.083       .  S
C2915      C2916   1.409       .  A
C2915      S2919   1.802       .  S
C2916      C2917   1.401       .  A
C2917      C2918   1.400       .  A
C2917      H2924   1.085       .  S
C2918      S2920   1.801       .  S
S2919      H2922   1.404       .  S
S2920      H2921   1.407       .  S
C2925      C2926   1.408       .  A
C2925      C2930   1.415       .  A
C2926      C2927   1.395       .  A
C2926      H2935   1.084       .  S
C2927      C2928   1.419       .  A
C2927      S2931   1.803       .  S
C2928      C2929   1.414       .  A
C2929      C2930   1.412       .  A
C2929      H2936   1.083       .  S
C2930      S2932   1.799       .  S
S2931      H2934   1.408       .  S
S2932      H2933   1.407       .  S
C2937      C2938   1.409       .  A
C2937      C2942   1.411       .  A
C2938      C2939   1.389       .  A
C2938      H2947   1.084       .  S
C2939      C2940   1.407       .  A
C2939      S2943   1.811       .  S
C2940      C2941   1.401       .  A
C2941      C2942   1.395       .  A
C2941      H2948   1.085       .  S
C2942      S2944   1.802       .  S
S2943      H2946   1.398       .  S
S2944      H2945   1.408       .  S
C2949      C2950   1.411       .  A
C2949      C2954   1.416       .  A
C2950      C2951   1.392       .  A
C2950      H2959   1.084       .  S
C2951      C2952   1.408       .  A
C2951      S2955   1.804       .  S
C2952      C2953   1.408       .  A
C2953      C2954   1.407       .  A
C2953      H2960   1.084       .  S
C2954      S2956   1.798       .  S
S2955      H2958   1.407       .  S
S2956      H2957   1.407   1_655  S
C2961      C2962   1.404       .  A
C2961      C2966   1.415       .  A
C2962      C2963   1.407       .  A
C2962      H2971   1.084       .  S
C2963      C2964   1.414       .  A
C2963      S2967   1.797       .  S
C2964      C2965   1.400       .  A
C2965      C2966   1.395       .  A
C2965      H2972   1.084       .  S
C2966      S2968   1.803       .  S
S2967      H2970   1.407       .  S
S2968      H2969   1.404       .  S
C2973      C2974   1.403       .  A
C2973      C2978   1.413       .  A
C2974      C2975   1.402       .  A
C2974      H2983   1.084       .  S
C2975      C2976   1.414       .  A
C2975      S2979   1.805       .  S
C2976      C2977   1.392       .  A
C2977      C2978   1.386       .  A
C2977      H2984   1.085       .  S
C2978      S2980   1.794       .  S
S2979      H2982   1.402       .  S
S2980      H2981   1.404       .  S
C2985      C2986   1.401       .  A
C2985      C2990   1.417       .  A
C2986      C2987   1.401       .  A
C2986      H2995   1.084       .  S
C2987      C2988   1.416       .  A
C2987      S2991   1.803       .  S
C2988      C2989   1.401       .  A
C2989      C2990   1.397       .  A
C2989      H2996   1.084       .  S
C2990      S2992   1.805       .  S
S2991      H2994   1.407       .  S
S2992      H2993   1.407       .  S
C2997      C2998   1.410       .  A
C2997      C3002   1.414       .  A
C2998      C2999   1.403       .  A
C2998      H3007   1.084       .  S
C2999      C3000   1.410       .  A
C2999      S3003   1.800       .  S
C3000      C3001   1.406       .  A
C3001      C3002   1.394       .  A
C3001      H3008   1.084       .  S
C3002      S3004   1.803       .  S
S3003      H3006   1.407       .  S
S3004      H3005   1.408       .  S
C3009      C3010   1.404       .  A
C3009      C3014   1.418       .  A
C3010      C3011   1.407       .  A
C3010      H3019   1.081       .  S
C3011      C3012   1.420       .  A
C3011      S3015   1.808       .  S
C3012      C3013   1.403       .  A
C3013      C3014   1.397       .  A
C3013      H3020   1.084       .  S
C3014      S3016   1.805       .  S
S3015      H3018   1.407       .  S
S3016      H3017   1.408       .  S
C3021      C3022   1.398       .  A
C3021      C3026   1.410       .  A
C3022      C3023   1.396       .  A
C3022      H3031   1.085       .  S
C3023      C3024   1.422       .  A
C3023      S3027   1.804       .  S
C3024      C3025   1.406       .  A
C3025      C3026   1.402       .  A
C3025      H3032   1.083       .  S
C3026      S3028   1.801       .  S
S3027      H3030   1.408       .  S
S3028      H3029   1.405       .  S
C3033      C3034   1.407       .  A
C3033      C3038   1.414       .  A
C3034      C3035   1.397       .  A
C3034      H3043   1.084       .  S
C3035      C3036   1.408       .  A
C3035      S3039   1.801       .  S
C3036      C3037   1.401       .  A
C3037      C3038   1.397       .  A
C3037      H3044   1.084       .  S
C3038      S3040   1.803       .  S
S3039      H3042   1.404       .  S
S3040      H3041   1.407       .  S
C3045      C3046   1.404       .  A
C3045      C3050   1.418       .  A
C3046      C3047   1.403       .  A
C3046      H3055   1.084       .  S
C3047      C3048   1.421       .  A
C3047      S3051   1.800       .  S
C3048      C3049   1.402       .  A
C3049      C3050   1.395       .  A
C3049      H3056   1.084       .  S
C3050      S3052   1.805       .  S
S3051      H3054   1.398       .  S
S3052      H3053   1.408       .  S
C3057      C3058   1.401       .  A
C3057      C3062   1.412       .  A
C3058      C3059   1.406       .  A
C3058      H3067   1.084       .  S
C3059      C3060   1.420       .  A
C3059      S3063   1.804       .  S
C3060      C3061   1.399       .  A
C3061      C3062   1.390       .  A
C3061      H3068   1.082       .  S
C3062      S3064   1.806       .  S
S3063      H3066   1.399       .  S
S3064      H3065   1.406       .  S
C3069      C3070   1.408       .  A
C3069      C3074   1.422       .  A
C3070      C3071   1.403       .  A
C3070      H3079   1.084       .  S
C3071      C3072   1.415       .  A
C3071      S3075   1.799       .  S
C3072      C3073   1.403       .  A
C3073      C3074   1.391       .  A
C3073      H3080   1.084       .  S
C3074      S3076   1.806       .  S
S3075      H3078   1.408       .  S
S3076      H3077   1.406       .  S
C3081      C3082   1.401       .  A
C3081      C3086   1.407       .  A
C3082      C3083   1.399       .  A
C3082      H3091   1.085       .  S
C3083      C3084   1.419       .  A
C3083      S3087   1.802       .  S
C3084      C3085   1.411       .  A
C3085      C3086   1.400       .  A
C3085      H3092   1.083       .  S
C3086      S3088   1.804       .  S
S3087      H3090   1.408       .  S
S3088      H3089   1.406       .  S
C3093      C3094   1.409       .  A
C3093      C3098   1.426       .  A
C3094      C3095   1.402       .  A
C3094      H3103   1.083       .  S
C3095      C3096   1.411       .  A
C3095      S3099   1.804       .  S
C3096      C3097   1.394       .  A
C3097      C3098   1.393       .  A
C3097      H3104   1.085       .  S
C3098      S3100   1.804       .  S
S3099      H3102   1.402       .  S
S3100      H3101   1.404       .  S
C3105      C3106   1.400       .  A
C3105      C3110   1.415       .  A
C3106      C3107   1.398       .  A
C3106      H3115   1.084       .  S
C3107      C3108   1.412       .  A
C3107      S3111   1.798       .  S
C3108      C3109   1.401       .  A
C3109      C3110   1.402       .  A
C3109      H3116   1.084       .  S
C3110      S3112   1.807       .  S
S3111      H3114   1.402       .  S
S3112      H3113   1.399       .  S
C3117      C3118   1.406       .  A
C3117      C3122   1.416       .  A
C3118      C3119   1.399       .  A
C3118      H3127   1.084       .  S
C3119      C3120   1.407       .  A
C3119      S3123   1.801       .  S
C3120      C3121   1.398       .  A
C3121      C3122   1.391       .  A
C3121      H3128   1.083       .  S
C3122      S3124   1.801       .  S
S3123      H3126   1.406       .  S
S3124      H3125   1.407       .  S
C3129      C3130   1.406       .  A
C3129      C3134   1.422       .  A
C3130      C3131   1.401       .  A
C3130      H3139   1.084       .  S
C3131      C3132   1.409       .  A
C3131      S3135   1.804       .  S
C3132      C3133   1.395       .  A
C3133      C3134   1.396       .  A
C3133      H3140   1.085       .  S
C3134      S3136   1.805       .  S
S3135      H3138   1.404       .  S
S3136      H3137   1.383       .  S
C3141      C3142   1.415       .  A
C3141      C3146   1.415       .  A
C3142      C3143   1.383       .  A
C3142      H3151   1.083       .  S
C3143      C3144   1.402       .  A
C3143      S3147   1.807       .  S
C3144      C3145   1.410       .  A
C3145      C3146   1.411       .  A
C3145      H3152   1.084       .  S
C3146      S3148   1.800       .  S
S3147      H3150   1.406       .  S
S3148      H3149   1.407       .  S
C3153      C3154   1.401       .  A
C3153      C3158   1.417       .  A
C3154      C3155   1.409       .  A
C3154      H3163   1.084       .  S
C3155      C3156   1.422       .  A
C3155      S3159   1.803       .  S
C3156      C3157   1.398       .  A
C3157      C3158   1.396       .  A
C3157      H3164   1.084       .  S
C3158      S3160   1.805       .  S
S3159      H3162   1.400       .  S
S3160      H3161   1.407       .  S
C3165      C3166   1.401       .  A
C3165      C3170   1.410       .  A
C3166      C3167   1.404       .  A
C3166      H3175   1.084       .  S
C3167      C3168   1.422       .  A
C3167      S3171   1.799       .  S
C3168      C3169   1.411       .  A
C3169      C3170   1.401       .  A
C3169      H3176   1.084       .  S
C3170      S3172   1.804       .  S
S3171      H3174   1.407       .  S
S3172      H3173   1.406       .  S
C3177      C3178   1.403       .  A
C3177      C3182   1.418       .  A
C3178      C3179   1.404       .  A
C3178      H3187   1.083       .  S
C3179      C3180   1.415       .  A
C3179      S3183   1.808       .  S
C3180      C3181   1.403       .  A
C3181      C3182   1.408       .  A
C3181      H3188   1.084       .  S
C3182      S3184   1.803       .  S
S3183      H3186   1.407       .  S
S3184      H3185   1.407       .  S
C3189      C3190   1.402       .  A
C3189      C3194   1.413       .  A
C3190      C3191   1.400       .  A
C3190      H3199   1.084       .  S
C3191      C3192   1.411       .  A
C3191      S3195   1.803       .  S
C3192      C3193   1.402       .  A
C3193      C3194   1.403       .  A
C3193      H3200   1.084       .  S
C3194      S3196   1.803       .  S
S3195      H3198   1.406       .  S
S3196      H3197   1.406       .  S
C3201      C3202   1.402       .  A
C3201      C3206   1.413       .  A
C3202      C3203   1.408       .  A
C3202      H3211   1.084       .  S
C3203      C3204   1.419       .  A
C3203      S3207   1.802       .  S
C3204      C3205   1.401       .  A
C3205      C3206   1.399       .  A
C3205      H3212   1.083       .  S
C3206      S3208   1.806       .  S
S3207      H3210   1.407       .  S
S3208      H3209   1.406       .  S
C3213      C3214   1.399       .  A
C3213      C3218   1.417       .  A
C3214      C3215   1.397       .  A
C3214      H3223   1.081       .  S
C3215      C3216   1.416       .  A
C3215      S3219   1.802       .  S
C3216      C3217   1.401       .  A
C3217      C3218   1.400       .  A
C3217      H3224   1.084       .  S
C3218      S3220   1.804       .  S
S3219      H3222   1.405       .  S
S3220      H3221   1.407       .  S
C3225      C3226   1.399       .  A
C3225      C3230   1.412       .  A
C3226      C3227   1.402       .  A
C3226      H3235   1.084       .  S
C3227      C3228   1.422       .  A
C3227      S3231   1.799       .  S
C3228      C3229   1.407       .  A
C3229      C3230   1.398       .  A
C3229      H3236   1.084       .  S
C3230      S3232   1.803       .  S
S3231      H3234   1.406       .  S
S3232      H3233   1.402       .  S
C3237      C3238   1.413       .  A
C3237      C3242   1.422       .  A
C3238      C3239   1.396       .  A
C3238      H3247   1.083       .  S
C3239      C3240   1.406       .  A
C3239      S3243   1.804       .  S
C3240      C3241   1.400       .  A
C3241      C3242   1.401       .  A
C3241      H3248   1.084       .  S
C3242      S3244   1.799       .  S
S3243      H3246   1.405       .  S
S3244      H3245   1.408       .  S
C3249      C3250   1.409       .  A
C3249      C3254   1.420       .  A
C3250      C3251   1.396       .  A
C3250      H3259   1.083       .  S
C3251      C3252   1.406       .  A
C3251      S3255   1.801       .  S
C3252      C3253   1.401       .  A
C3253      C3254   1.402       .  A
C3253      H3260   1.085   1_655  S
C3254      S3256   1.800       .  S
S3255      H3258   1.404       .  S
S3256      H3257   1.408       .  S
C3261      C3262   1.413       .  A
C3261      C3266   1.417       .  A
C3262      C3263   1.396       .  A
C3262      H3271   1.083       .  S
C3263      C3264   1.402       .  A
C3263      S3267   1.799       .  S
C3264      C3265   1.402       .  A
C3265      C3266   1.392       .  A
C3265      H3272   1.085       .  S
C3266      S3268   1.802       .  S
S3267      H3270   1.407       .  S
S3268      H3269   1.408       .  S
C3273      C3274   1.409       .  A
C3273      C3278   1.417       .  A
C3274      C3275   1.399       .  A
C3274      H3283   1.084       .  S
C3275      C3276   1.407       .  A
C3275      S3279   1.803       .  S
C3276      C3277   1.406       .  A
C3277      C3278   1.406       .  A
C3277      H3284   1.084   1_565  S
C3278      S3280   1.801       .  S
S3279      H3282   1.407       .  S
S3280      H3281   1.407       .  S
C3285      C3286   1.400       .  A
C3285      C3290   1.411       .  A
C3286      C3287   1.398       .  A
C3286      H3295   1.081       .  S
C3287      C3288   1.414       .  A
C3287      S3291   1.801       .  S
C3288      C3289   1.404       .  A
C3289      C3290   1.400       .  A
C3289      H3296   1.084       .  S
C3290      S3292   1.803       .  S
S3291      H3294   1.406       .  S
S3292      H3293   1.406       .  S
C3297      C3298   1.400       .  A
C3297      C3302   1.420       .  A
C3298      C3299   1.387       .  A
C3298      H3307   1.084       .  S
C3299      C3300   1.411       .  A
C3299      S3303   1.797       .  S
C3300      C3301   1.399       .  A
C3301      C3302   1.400       .  A
C3301      H3308   1.084       .  S
C3302      S3304   1.802       .  S
S3303      H3306   1.402       .  S
S3304      H3305   1.407       .  S
C3309      C3310   1.400       .  A
C3309      C3314   1.416       .  A
C3310      C3311   1.402       .  A
C3310      H3319   1.084       .  S
C3311      C3312   1.418       .  A
C3311      S3315   1.799       .  S
C3312      C3313   1.405       .  A
C3313      C3314   1.407       .  A
C3313      H3320   1.084       .  S
C3314      S3316   1.804       .  S
S3315      H3318   1.407       .  S
S3316      H3317   1.401       .  S
C3321      C3322   1.404       .  A
C3321      C3326   1.419       .  A
C3322      C3323   1.398       .  A
C3322      H3331   1.084       .  S
C3323      C3324   1.414       .  A
C3323      S3327   1.803   1_655  S
C3324      C3325   1.404       .  A
C3325      C3326   1.409       .  A
C3325      H3332   1.084       .  S
C3326      S3328   1.802       .  S
S3327      H3330   1.404       .  S
S3328      H3329   1.407       .  S
C3333      C3334   1.411       .  A
C3333      C3338   1.419       .  A
C3334      C3335   1.410       .  A
C3334      H3343   1.083       .  S
C3335      C3336   1.419       .  A
C3335      S3339   1.802       .  S
C3336      C3337   1.408       .  A
C3337      C3338   1.395       .  A
C3337      H3344   1.083       .  S
C3338      S3340   1.804       .  S
S3339      H3342   1.407       .  S
S3340      H3341   1.408       .  S
C3345      C3346   1.407       .  A
C3345      C3350   1.417       .  A
C3346      C3347   1.403       .  A
C3346      H3355   1.084       .  S
C3347      C3348   1.410       .  A
C3347      S3351   1.800       .  S
C3348      C3349   1.399       .  A
C3349      C3350   1.393       .  A
C3349      H3356   1.084       .  S
C3350      S3352   1.804       .  S
S3351      H3354   1.405       .  S
S3352      H3353   1.406       .  S
C3357      C3358   1.396       .  A
C3357      C3362   1.410       .  A
C3358      C3359   1.393       .  A
C3358      H3367   1.082       .  S
C3359      C3360   1.419       .  A
C3359      S3363   1.804       .  S
C3360      C3361   1.406       .  A
C3361      C3362   1.403       .  A
C3361      H3368   1.084       .  S
C3362      S3364   1.805       .  S
S3363      H3366   1.392       .  S
S3364      H3365   1.404       .  S
C3369      C3370   1.405       .  A
C3369      C3374   1.412       .  A
C3370      C3371   1.400       .  A
C3370      H3379   1.084       .  S
C3371      C3372   1.415       .  A
C3371      S3375   1.791       .  S
C3372      C3373   1.411       .  A
C3373      C3374   1.399       .  A
C3373      H3380   1.084       .  S
C3374      S3376   1.803       .  S
S3375      H3378   1.405       .  S
S3376      H3377   1.408       .  S
C3381      C3382   1.408       .  A
C3381      C3386   1.417       .  A
C3382      C3383   1.393       .  A
C3382      H3391   1.083       .  S
C3383      C3384   1.405       .  A
C3383      S3387   1.804       .  S
C3384      C3385   1.400       .  A
C3385      C3386   1.400       .  A
C3385      H3392   1.084       .  S
C3386      S3388   1.802       .  S
S3387      H3390   1.406       .  S
S3388      H3389   1.408       .  S
C3393      C3394   1.407       .  A
C3393      C3398   1.414       .  A
C3394      C3395   1.407       .  A
C3394      H3403   1.084       .  S
C3395      C3396   1.413       .  A
C3395      S3399   1.803       .  S
C3396      C3397   1.402       .  A
C3397      C3398   1.397       .  A
C3397      H3404   1.084       .  S
C3398      S3400   1.803       .  S
S3399      H3402   1.406       .  S
S3400      H3401   1.407       .  S
C3405      C3406   1.401       .  A
C3405      C3410   1.412       .  A
C3406      C3407   1.400       .  A
C3406      H3415   1.084       .  S
C3407      C3408   1.414       .  A
C3407      S3411   1.807       .  S
C3408      C3409   1.401       .  A
C3409      C3410   1.398       .  A
C3409      H3416   1.084       .  S
C3410      S3412   1.805   1_455  S
S3411      H3414   1.402       .  S
S3412      H3413   1.403       .  S
C3417      C3418   1.402       .  A
C3417      C3422   1.411       .  A
C3418      C3419   1.396       .  A
C3418      H3427   1.084   1_545  S
C3419      C3420   1.411       .  A
C3419      S3423   1.802       .  S
C3420      C3421   1.403       .  A
C3421      C3422   1.400       .  A
C3421      H3428   1.084       .  S
C3422      S3424   1.803       .  S
S3423      H3426   1.404       .  S
S3424      H3425   1.406       .  S
C3429      C3430   1.403       .  A
C3429      C3434   1.414       .  A
C3430      C3431   1.391       .  A
C3430      H3439   1.084       .  S
C3431      C3432   1.412       .  A
C3431      S3435   1.805       .  S
C3432      C3433   1.404       .  A
C3433      C3434   1.400       .  A
C3433      H3440   1.084       .  S
C3434      S3436   1.804       .  S
S3435      H3438   1.403       .  S
S3436      H3437   1.406       .  S
C3441      C3442   1.408       .  A
C3441      C3446   1.415       .  A
C3442      C3443   1.400       .  A
C3442      H3451   1.084       .  S
C3443      C3444   1.413       .  A
C3443      S3447   1.806       .  S
C3444      C3445   1.404       .  A
C3445      C3446   1.399       .  A
C3445      H3452   1.084       .  S
C3446      S3448   1.804   1_554  S
S3447      H3450   1.399       .  S
S3448      H3449   1.407       .  S
C3453      C3454   1.402       .  A
C3453      C3458   1.418       .  A
C3454      C3455   1.402       .  A
C3454      H3463   1.084       .  S
C3455      C3456   1.416       .  A
C3455      S3459   1.804       .  S
C3456      C3457   1.400       .  A
C3457      C3458   1.398       .  A
C3457      H3464   1.084       .  S
C3458      S3460   1.805   1_455  S
S3459      H3462   1.407       .  S
S3460      H3461   1.407       .  S
C3465      C3466   1.406       .  A
C3465      C3470   1.415       .  A
C3466      C3467   1.402       .  A
C3466      H3475   1.084       .  S
C3467      C3468   1.414       .  A
C3467      S3471   1.804       .  S
C3468      C3469   1.402       .  A
C3469      C3470   1.398       .  A
C3469      H3476   1.084       .  S
C3470      S3472   1.804   1_545  S
S3471      H3474   1.407       .  S
S3472      H3473   1.407       .  S
C3477      C3478   1.404       .  A
C3477      C3482   1.419       .  A
C3478      C3479   1.395       .  A
C3478      H3487   1.084       .  S
C3479      C3480   1.412       .  A
C3479      S3483   1.797       .  S
C3480      C3481   1.405       .  A
C3481      C3482   1.407       .  A
C3481      H3488   1.084       .  S
C3482      S3484   1.803   1_565  S
S3483      H3486   1.405       .  S
S3484      H3485   1.406       .  S
C3489      C3490   1.406       .  A
C3489      C3494   1.416       .  A
C3490      C3491   1.400       .  A
C3490      H3499   1.084       .  S
C3491      C3492   1.412       .  A
C3491      S3495   1.805       .  S
C3492      C3493   1.401       .  A
C3493      C3494   1.402       .  A
C3493      H3500   1.083       .  S
C3494      S3496   1.810   1_554  S
S3495      H3498   1.403       .  S
S3496      H3497   1.407       .  S
C3501      C3502   1.409       .  A
C3501      C3506   1.418       .  A
C3502      C3503   1.406       .  A
C3502      H3511   1.083       .  S
C3503      C3504   1.417       .  A
C3503      S3507   1.804       .  S
C3504      C3505   1.405       .  A
C3505      C3506   1.406       .  A
C3505      H3512   1.084       .  S
C3506      S3508   1.801       .  S
S3507      H3510   1.404       .  S
S3508      H3509   1.407       .  S
C3513      C3514   1.410       .  A
C3513      C3518   1.418       .  A
C3514      C3515   1.404       .  A
C3514      H3523   1.083       .  S
C3515      C3516   1.414       .  A
C3515      S3519   1.801       .  S
C3516      C3517   1.405       .  A
C3517      C3518   1.401       .  A
C3517      H3524   1.081       .  S
C3518      S3520   1.804       .  S
S3519      H3522   1.401       .  S
S3520      H3521   1.407       .  S
C3525      C3526   1.408       .  A
C3525      C3530   1.417       .  A
C3526      C3527   1.402       .  A
C3526      H3535   1.084       .  S
C3527      C3528   1.414       .  A
C3527      S3531   1.803       .  S
C3528      C3529   1.404       .  A
C3529      C3530   1.404       .  A
C3529      H3536   1.084       .  S
C3530      S3532   1.801       .  S
S3531      H3534   1.403       .  S
S3532      H3533   1.406       .  S
C3537      C3538   1.404       .  A
C3537      C3542   1.407       .  A
C3538      C3539   1.406       .  A
C3538      H3547   1.084       .  S
C3539      C3540   1.413       .  A
C3539      S3543   1.804       .  S
C3540      C3541   1.401       .  A
C3541      C3542   1.391       .  A
C3541      H3548   1.085       .  S
C3542      S3544   1.802       .  S
S3543      H3546   1.404       .  S
S3544      H3545   1.406       .  S
C3549      C3550   1.404       .  A
C3549      C3554   1.415       .  A
C3550      C3551   1.391       .  A
C3550      H3559   1.084       .  S
C3551      C3552   1.411       .  A
C3551      S3555   1.805       .  S
C3552      C3553   1.407       .  A
C3553      C3554   1.407       .  A
C3553      H3560   1.084       .  S
C3554      S3556   1.796       .  S
S3555      H3558   1.399       .  S
S3556      H3557   1.406       .  S
C3561      C3562   1.405       .  A
C3561      C3566   1.419       .  A
C3562      C3563   1.395       .  A
C3562      H3571   1.084       .  S
C3563      C3564   1.411       .  A
C3563      S3567   1.805       .  S
C3564      C3565   1.400       .  A
C3565      C3566   1.399       .  A
C3565      H3572   1.084       .  S
C3566      S3568   1.802       .  S
S3567      H3570   1.407       .  S
S3568      H3569   1.408       .  S
C3573      C3574   1.398       .  A
C3573      C3578   1.414       .  A
C3574      C3575   1.393       .  A
C3574      H3583   1.084       .  S
C3575      C3576   1.420       .  A
C3575      S3579   1.802       .  S
C3576      C3577   1.406       .  A
C3577      C3578   1.393       .  A
C3577      H3584   1.083       .  S
C3578      S3580   1.804       .  S
S3579      H3582   1.408       .  S
S3580      H3581   1.400       .  S
C3585      C3586   1.401       .  A
C3585      C3590   1.413       .  A
C3586      C3587   1.399       .  A
C3586      H3595   1.084       .  S
C3587      C3588   1.423       .  A
C3587      S3591   1.802       .  S
C3588      C3589   1.408       .  A
C3589      C3590   1.400       .  A
C3589      H3596   1.083       .  S
C3590      S3592   1.802       .  S
S3591      H3594   1.408       .  S
S3592      H3593   1.406       .  S
C3597      C3598   1.403       .  A
C3597      C3602   1.409       .  A
C3598      C3599   1.400       .  A
C3598      H3607   1.081       .  S
C3599      C3600   1.411       .  A
C3599      S3603   1.802       .  S
C3600      C3601   1.404       .  A
C3601      C3602   1.393       .  A
C3601      H3608   1.085       .  S
C3602      S3604   1.803       .  S
S3603      H3606   1.406       .  S
S3604      H3605   1.403       .  S
C3609      C3610   1.400       .  A
C3609      C3614   1.409       .  A
C3610      C3611   1.398       .  A
C3610      H3619   1.084       .  S
C3611      C3612   1.408       .  A
C3611      S3615   1.807       .  S
C3612      C3613   1.397       .  A
C3613      C3614   1.391       .  A
C3613      H3620   1.083       .  S
C3614      S3616   1.804       .  S
S3615      H3618   1.407       .  S
S3616      H3617   1.407       .  S
C3621      C3622   1.410       .  A
C3621      C3626   1.410       .  A
C3622      C3623   1.397       .  A
C3622      H3631   1.084       .  S
C3623      C3624   1.410       .  A
C3623      S3627   1.799       .  S
C3624      C3625   1.410       .  A
C3625      C3626   1.393       .  A
C3625      H3632   1.084       .  S
C3626      S3628   1.803       .  S
S3627      H3630   1.407       .  S
S3628      H3629   1.408       .  S
C3633      C3634   1.404       .  A
C3633      C3638   1.417       .  A
C3634      C3635   1.403       .  A
C3634      H3643   1.082       .  S
C3635      C3636   1.416       .  A
C3635      S3639   1.798       .  S
C3636      C3637   1.401       .  A
C3637      C3638   1.385       .  A
C3637      H3644   1.084       .  S
C3638      S3640   1.806       .  S
S3639      H3642   1.407       .  S
S3640      H3641   1.405       .  S
C3645      C3646   1.400       .  A
C3645      C3650   1.409       .  A
C3646      C3647   1.399       .  A
C3646      H3655   1.085       .  S
C3647      C3648   1.421       .  A
C3647      S3651   1.804       .  S
C3648      C3649   1.407       .  A
C3649      C3650   1.403       .  A
C3649      H3656   1.084       .  S
C3650      S3652   1.801       .  S
S3651      H3654   1.405       .  S
S3652      H3653   1.404       .  S
C3657      C3658   1.403       .  A
C3657      C3662   1.409       .  A
C3658      C3659   1.406       .  A
C3658      H3667   1.084       .  S
C3659      C3660   1.420       .  A
C3659      S3663   1.801       .  S
C3660      C3661   1.413       .  A
C3661      C3662   1.402       .  A
C3661      H3668   1.083       .  S
C3662      S3664   1.806       .  S
S3663      H3666   1.408       .  S
S3664      H3665   1.405       .  S
C3669      C3670   1.406       .  A
C3669      C3674   1.419       .  A
C3670      C3671   1.405       .  A
C3670      H3679   1.083       .  S
C3671      C3672   1.414       .  A
C3671      S3675   1.806       .  S
C3672      C3673   1.399       .  A
C3673      C3674   1.387       .  A
C3673      H3680   1.085       .  S
C3674      S3676   1.804       .  S
S3675      H3678   1.407       .  S
S3676      H3677   1.406       .  S
