geometry optimzed in LAMMPS
_audit_creation_date              2020-11-30 
_audit_creation_method            'lammps2cif' 
_symmetry_space_group_name_H-M    'P1' 
_symmetry_Int_Tables_number       1 
_symmetry_cell_setting            triclinic 
loop_ 
_symmetry_equiv_pos_as_xyz 
  x,y,z 
_cell_length_a                    35.03220739235378 
_cell_length_b                    35.17281473930538 
_cell_length_c                    35.06399400947577 
_cell_angle_alpha                 90.14015291002724 
_cell_angle_beta                  90.06775750373625 
_cell_angle_gamma                 89.96059558178898 
loop_ 
_atom_site_label 
_atom_site_type_symbol 
_atom_site_fract_x 
_atom_site_fract_y 
_atom_site_fract_z 
_atom_site_charge 
O1          O  0.29126063  0.49803424  0.05040951    -0.73160
O2          O  0.28730853  0.49665698  0.94218060    -0.73190
O3          O  0.28674005  0.55194621  0.99565899    -0.73240
O4          O  0.28921992  0.44232568  0.99709467    -0.73290
O5          O  0.22566383  0.44196972  0.00020737    -0.73220
O6          O  0.22325011  0.54980141  0.99579173    -0.73200
O7          O  0.22363159  0.49373359  0.94329853    -0.73180
O8          O  0.22756044  0.49849003  0.05289843    -0.73240
Ni9        Ni  0.29092411  0.49724612  0.99625748     1.25410
Ni10       Ni  0.22275388  0.49590377  0.99819533     1.25360
C11         C  0.26030158  0.49887128  0.06944118     0.89020
C12         C  0.25526254  0.49515186  0.92493739     0.88950
C13         C  0.25420094  0.56887512  0.99499684     0.88980
C14         C  0.25742877  0.42417404  0.99910068     0.89150
C15         C  0.24543778  0.50450116  0.75801182    -0.01220
O16         O  0.72593624  0.49828586  0.05671010    -0.73160
O17         O  0.72731109  0.49470729  0.94804178    -0.73190
O18         O  0.72936207  0.44220415  0.00450580    -0.73240
O19         O  0.72475931  0.55094778  0.00062424    -0.73290
O20         O  0.78838143  0.55318525  0.00223436    -0.73220
O21         O  0.79303388  0.44418356  0.00428717    -0.73200
O22         O  0.79092281  0.49776437  0.94836091    -0.73180
O23         O  0.78961227  0.49966388  0.05790532    -0.73240
Ni24       Ni  0.72462352  0.49643626  0.00239497     1.25410
Ni25       Ni  0.79280521  0.49881351  0.00319165     1.25360
C26         C  0.75738050  0.49920081  0.07522840     0.89020
C27         C  0.75913456  0.49590005  0.93024045     0.88950
C28         C  0.76181798  0.42531782  0.00533977     0.88980
C29         C  0.75593436  0.56999246  0.00109830     0.89150
C30         C  0.75830043  0.49536159  0.75960307    -0.01220
O31         O  0.05591494  0.50282524  0.71647706    -0.73160
O32         O  0.94690280  0.50410185  0.71942366    -0.73190
O33         O  0.00211335  0.55852935  0.72081043    -0.73240
O34         O  0.00078213  0.44930705  0.71804464    -0.73290
O35         O  0.00399570  0.44773880  0.78110972    -0.73220
O36         O  0.00277959  0.55606657  0.78442069    -0.73200
O37         O  0.94785865  0.50125904  0.78282213    -0.73180
O38         O  0.05752671  0.50254549  0.77983609    -0.73240
Ni39       Ni  0.00129785  0.50386668  0.71642462     1.25410
Ni40       Ni  0.00296580  0.50191674  0.78430379     1.25360
C41         C  0.07490423  0.50184467  0.74756690     0.89020
C42         C  0.92922891  0.50203298  0.75119546     0.88950
C43         C  0.00302573  0.57508294  0.75349220     0.88980
C44         C  0.00363741  0.43027653  0.74916434     0.89150
O45         O  0.05500093  0.50218809  0.27966948    -0.73160
O46         O  0.94522702  0.50348274  0.28102309    -0.73190
O47         O  0.99929782  0.44896389  0.28072030    -0.73240
O48         O  0.00051049  0.55741444  0.27935568    -0.73290
O49         O  0.99945076  0.55679457  0.21584717    -0.73220
O50         O  0.99765959  0.44849631  0.21707919    -0.73200
O51         O  0.94410709  0.50312491  0.21741760    -0.73180
O52         O  0.05298426  0.50140647  0.21667130    -0.73240
Ni53       Ni  0.00000225  0.50316755  0.28251484     1.25410
Ni54       Ni  0.99852084  0.50252790  0.21454296     1.25360
C55         C  0.07247907  0.50065873  0.24760637     0.89020
C56         C  0.92669224  0.50287996  0.24948831     0.88950
C57         C  0.99833601  0.43098576  0.24894973     0.88980
C58         C  0.00061245  0.57502716  0.24738603     0.89150
C59         C  0.75653824  0.49934735  0.24558006    -0.01220
C60         C  0.24398407  0.49619380  0.23671210    -0.01220
O61         O  0.50174635  0.72229970  0.05637726    -0.73160
O62         O  0.50078854  0.71633544  0.94785660    -0.73190
O63         O  0.55576696  0.71789713  0.00193253    -0.73240
O64         O  0.44716232  0.72158337  0.00278238    -0.73290
O65         O  0.44775344  0.78479161  0.99925458    -0.73220
O66         O  0.55722720  0.78124467  0.99890508    -0.73200
O67         O  0.50185751  0.77974065  0.94464649    -0.73180
O68         O  0.50287020  0.78571259  0.05347728    -0.73240
Ni69       Ni  0.50133217  0.71731180  0.00232973     1.25410
Ni70       Ni  0.50260384  0.78519470  0.99893657     1.25360
C71         C  0.50202544  0.75482007  0.07271296     0.89020
C72         C  0.50061583  0.74705990  0.92846917     0.88950
C73         C  0.57443885  0.74910668  0.00053553     0.88980
C74         C  0.42938663  0.75339685  0.00088687     0.89150
C75         C  0.49801739  0.76386808  0.76057979    -0.01220
O76         O  0.50537156  0.05978316  0.70075869    -0.73160
O77         O  0.50654629  0.95055813  0.70989574    -0.73190
O78         O  0.45128439  0.00445907  0.70556926    -0.73240
O79         O  0.56023483  0.00625103  0.70581608    -0.73290
O80         O  0.55958122  0.00915196  0.76880594    -0.73220
O81         O  0.45037187  0.01159236  0.76813286    -0.73200
O82         O  0.50405106  0.95611891  0.77256744    -0.73180
O83         O  0.50674332  0.06447289  0.76417157    -0.73240
Ni84       Ni  0.50578097  0.00505442  0.70325032     1.25410
Ni85       Ni  0.50510423  0.01051644  0.77063237     1.25360
C86         C  0.50689920  0.07998553  0.73116338     0.89020
C87         C  0.50566920  0.93488860  0.74288279     0.88950
C88         C  0.43230149  0.00791778  0.73658440     0.88980
C89         C  0.57830668  0.00797147  0.73750455     0.89150
O90         O  0.49272476  0.28632693  0.06073727    -0.73160
O91         O  0.50083801  0.28525129  0.95147652    -0.73190
O92         O  0.44291364  0.28572503  0.00217782    -0.73240
O93         O  0.55168541  0.28594635  0.00923815    -0.73290
O94         O  0.55145938  0.22255304  0.00774746    -0.73220
O95         O  0.44323921  0.22228933  0.00361121    -0.73200
O96         O  0.49967199  0.22239528  0.95216368    -0.73180
O97         O  0.49530268  0.22343853  0.05995041    -0.73240
Ni98       Ni  0.49718211  0.28820168  0.00600271     1.25410
Ni99       Ni  0.49747628  0.22051123  0.00601946     1.25360
C100        C  0.49122742  0.25453865  0.07847709     0.89020
C101        C  0.50102710  0.25347030  0.93350625     0.88950
C102        C  0.42530305  0.25385898  0.00177015     0.88980
C103        C  0.56941495  0.25410307  0.00809264     0.89150
C104        C  0.49636331  0.24621826  0.76326461    -0.01220
O105        O  0.50259776  0.05200718  0.28751036    -0.73160
O106        O  0.50562771  0.94454341  0.27719019    -0.73190
O107        O  0.55851826  0.99932311  0.27927024    -0.73240
O108        O  0.44992011  0.99645904  0.28232415    -0.73290
O109        O  0.44855088  0.00187954  0.21953905    -0.73220
O110        O  0.55742265  0.00536593  0.21624829    -0.73200
O111        O  0.50427360  0.94898679  0.21375384    -0.73180
O112        O  0.50129698  0.05809414  0.22421555    -0.73240
Ni113      Ni  0.50427995  0.99799280  0.28374792     1.25410
Ni114      Ni  0.50280468  0.00386715  0.21609365     1.25360
C115        C  0.50144032  0.07282343  0.25782339     0.89020
C116        C  0.50529184  0.92894566  0.24433537     0.88950
C117        C  0.57617067  0.00257837  0.24737773     0.88980
C118        C  0.43092514  0.99773351  0.25113334     0.89150
C119        C  0.50009988  0.75951955  0.24284887    -0.01220
C120        C  0.49323223  0.24078315  0.24858388    -0.01220
O121        O  0.20147060  0.99630535  0.43895791    -0.73160
O122        O  0.19799349  0.99675761  0.54883565    -0.73190
O123        O  0.19881391  0.05125390  0.49377381    -0.73240
O124        O  0.20036716  0.94215831  0.49349624    -0.73290
O125        O  0.26381871  0.94303565  0.49783329    -0.73220
O126        O  0.26251051  0.05171986  0.49364839    -0.73200
O127        O  0.26161601  0.99959370  0.55039762    -0.73180
O128        O  0.26497227  0.99469737  0.44193994    -0.73240
Ni129      Ni  0.19730676  0.99656299  0.49374063     1.25410
Ni130      Ni  0.26542323  0.99729013  0.49608536     1.25360
C131        C  0.23411038  0.99530583  0.42244563     0.89020
C132        C  0.22941457  0.99895271  0.56756100     0.88950
C133        C  0.23052583  0.06940708  0.49350934     0.88980
C134        C  0.23240044  0.92464057  0.49515478     0.89150
C135        C  0.23895748  0.75511229  0.49905040    -0.01220
O136        O  0.72783663  0.05243016  0.49911510    -0.73160
O137        O  0.72445555  0.94396668  0.50421645    -0.73190
O138        O  0.72826509  0.00124498  0.55658570    -0.73240
O139        O  0.72426002  0.99579413  0.44681151    -0.73290
O140        O  0.78781238  0.99399282  0.44468884    -0.73220
O141        O  0.79183068  0.99847182  0.55401749    -0.73200
O142        O  0.78788906  0.94182051  0.50181949    -0.73180
O143        O  0.79154478  0.05069026  0.49777004    -0.73240
Ni144      Ni  0.72393048  0.99836347  0.50172614     1.25410
Ni145      Ni  0.79200835  0.99612726  0.49939889     1.25360
C146        C  0.76014376  0.06934070  0.49838036     0.89020
C147        C  0.75560412  0.92486008  0.50406478     0.88950
C148        C  0.76087191  0.00079785  0.57329101     0.88980
C149        C  0.75542649  0.99468770  0.42763535     0.89150
C150        C  0.75365758  0.75490753  0.51065432    -0.01220
O151        O  0.05202887  0.71086486  0.50249312    -0.73160
O152        O  0.94168173  0.70970394  0.50018210    -0.73190
O153        O  0.99795987  0.70925028  0.44677069    -0.73240
O154        O  0.99562351  0.70874695  0.55585654    -0.73290
O155        O  0.99384159  0.77193212  0.55694734    -0.73220
O156        O  0.99959747  0.77267115  0.44679749    -0.73200
O157        O  0.94280087  0.77262990  0.49840776    -0.73180
O158        O  0.05062434  0.77424993  0.50438698    -0.73240
Ni159      Ni  0.99688105  0.70732448  0.50129989     1.25410
Ni160      Ni  0.99664356  0.77505988  0.50171748     1.25360
C161        C  0.06926978  0.74315577  0.50335544     0.89020
C162        C  0.92390103  0.74168389  0.49905432     0.88950
C163        C  0.99945041  0.74080224  0.42885541     0.88980
C164        C  0.99415284  0.73990084  0.57466918     0.89150
O165        O  0.05369057  0.28334145  0.49861634    -0.73160
O166        O  0.94422740  0.29605051  0.49603049    -0.73190
O167        O  0.99862184  0.28676169  0.55141097    -0.73240
O168        O  0.00041780  0.29302388  0.44302562    -0.73290
O169        O  0.99515437  0.22980210  0.43966063    -0.73220
O170        O  0.99198447  0.22373190  0.54840817    -0.73200
O171        O  0.93928802  0.23299928  0.49250641    -0.73180
O172        O  0.04685521  0.22036432  0.49591982    -0.73240
Ni173      Ni  0.99945010  0.29212017  0.49741855     1.25410
Ni174      Ni  0.99292251  0.22455316  0.49392534     1.25360
C175        C  0.06805682  0.24972319  0.49867207     0.89020
C176        C  0.92371663  0.26600076  0.49282825     0.88950
C177        C  0.99582942  0.25436925  0.56773228     0.88980
C178        C  0.99839882  0.26230201  0.42361076     0.89150
C179        C  0.75633107  0.23665615  0.49980101    -0.01220
C180        C  0.23749310  0.23733412  0.50682737    -0.01220
C181        C  0.00262257  0.26228620  0.25419248    -0.01220
C182        C  0.74589663  0.00159427  0.25832436    -0.01220
C183        C  0.00603745  0.74364388  0.25839521    -0.01220
C184        C  0.25995481  0.99659733  0.25439170    -0.01220
C185        C  0.00393444  0.74311637  0.74646672    -0.01220
C186        C  0.25926813  0.00365548  0.73369589    -0.01220
C187        C  0.99934227  0.26132299  0.73633552    -0.01220
C188        C  0.74925194  0.00196796  0.74112072    -0.01220
C189        C  0.25584818  0.25417330  0.99797562    -0.01220
C190        C  0.26046091  0.73708340  0.99568509    -0.01220
C191        C  0.73733431  0.25685256  0.00078201    -0.01220
C192        C  0.74495842  0.74017670  0.00071234    -0.01220
C193        C  0.81175463  0.19647394  0.14199002     0.04400
C194        C  0.79300378  0.16762499  0.16247415    -0.11750
C195        C  0.81290136  0.14438098  0.18891423     0.01900
C196        C  0.85148721  0.15426427  0.19597914    -0.10280
C197        C  0.86743175  0.18804519  0.18149345     0.04390
C198        C  0.84805122  0.20805415  0.15311499    -0.09700
H199        H  0.76301649  0.16374761  0.15685146     0.09990
H200        H  0.86963960  0.13673487  0.21347548     0.07510
H201        H  0.86092459  0.23273890  0.13991362     0.07360
C202        C  0.19090487  0.81320208  0.13094575     0.04400
C203        C  0.16184330  0.79625071  0.15247164    -0.11750
C204        C  0.13894573  0.81792181  0.17791485     0.01900
C205        C  0.15014474  0.85611858  0.18401171    -0.10280
C206        C  0.18450631  0.86994643  0.16913783     0.04390
C207        C  0.20346467  0.84952555  0.14069493    -0.09700
H208        H  0.15744465  0.76617727  0.14842785     0.09990
H209        H  0.13361500  0.87547867  0.20111990     0.07510
H210        H  0.22862437  0.86129061  0.12718516     0.07360
C211        C  0.17961959  0.13440327  0.81245500     0.04400
C212        C  0.14499474  0.15076790  0.79929078    -0.11750
C213        C  0.12481561  0.17818903  0.82130107     0.01900
C214        C  0.14065426  0.18888619  0.85671396    -0.10280
C215        C  0.17683891  0.17585378  0.86821295     0.04390
C216        C  0.19519049  0.14762905  0.84688450    -0.09700
H217        H  0.13420815  0.14255613  0.77151552     0.09990
H218        H  0.12569094  0.20847776  0.87518540     0.07510
H219        H  0.22225513  0.13650739  0.85683137     0.07360
C220        C  0.87028312  0.81922139  0.18414190     0.04400
C221        C  0.85469953  0.85371803  0.19726877    -0.11750
C222        C  0.82071256  0.86796749  0.18197391     0.01900
C223        C  0.80363737  0.84968883  0.15084519    -0.10280
C224        C  0.81891018  0.81574247  0.13612641     0.04390
C225        C  0.85190114  0.80026579  0.15347749    -0.09700
H226        H  0.86850637  0.86930977  0.22011017     0.09990
H227        H  0.77820069  0.86194152  0.13824892     0.07510
H228        H  0.86306201  0.77339944  0.14322000     0.07360
C229        C  0.20667207  0.80442540  0.84518972     0.04400
C230        C  0.17075011  0.79286227  0.83048100    -0.11750
C231        C  0.15378069  0.81088637  0.79862512     0.01900
C232        C  0.17178582  0.84304361  0.78338558    -0.10280
C233        C  0.20723550  0.85510761  0.79751407     0.04390
C234        C  0.22559591  0.83418943  0.82617146    -0.09700
H235        H  0.15485550  0.77064442  0.84453586     0.09990
H236        H  0.15773033  0.85942476  0.76132220     0.07510
H237        H  0.25395582  0.84277349  0.83486031     0.07360
C238        C  0.81487241  0.18955071  0.86398888     0.04400
C239        C  0.84597574  0.20743489  0.84606504    -0.11750
C240        C  0.85931668  0.19503350  0.81012775     0.01900
C241        C  0.83977316  0.16488736  0.79176304    -0.10280
C242        C  0.81067960  0.14503224  0.81054190     0.04390
C243        C  0.79944793  0.15672040  0.84698652    -0.09700
H244        H  0.85933638  0.23156233  0.85973889     0.09990
H245        H  0.84767305  0.15610465  0.76323108     0.07510
H246        H  0.77744652  0.14077640  0.86163302     0.07360
C247        C  0.87133090  0.82256933  0.82119603     0.04400
C248        C  0.85754214  0.85871231  0.81108763    -0.11750
C249        C  0.82193913  0.87226542  0.82326772     0.01900
C250        C  0.80277644  0.85242156  0.85215720    -0.10280
C251        C  0.81641794  0.81734055  0.86531407     0.04390
C252        C  0.84858522  0.80152109  0.84712681    -0.09700
H253        H  0.87372199  0.87679048  0.79327089     0.09990
H254        H  0.77648980  0.86386969  0.86368819     0.07510
H255        H  0.85598838  0.77277903  0.85414819     0.07360
C256        C  0.14229544  0.18804372  0.18989437     0.04400
C257        C  0.16081874  0.15791937  0.20872504    -0.11750
C258        C  0.19278443  0.14000764  0.19228457     0.01900
C259        C  0.20664523  0.15310941  0.15710746    -0.10280
C260        C  0.18934683  0.18410452  0.13852613     0.04390
C261        C  0.15695270  0.20080397  0.15492758    -0.09700
H262        H  0.15023627  0.14814965  0.23601755     0.09990
H263        H  0.23076518  0.13888468  0.14401079     0.07510
H264        H  0.14316631  0.22426308  0.14047341     0.07360
C265        C  0.35663975  0.31445503  0.69420541     0.04400
C266        C  0.34621088  0.35157353  0.70380965    -0.11750
C267        C  0.32211495  0.37319647  0.67989685     0.01900
C268        C  0.31053408  0.35572524  0.64516977    -0.10280
C269        C  0.31497629  0.31604683  0.63870491     0.04390
C270        C  0.33689127  0.29568106  0.66530256    -0.09700
H271        H  0.35689418  0.36269311  0.73041055     0.09990
H272        H  0.29804867  0.37259709  0.62298927     0.07510
H273        H  0.34012681  0.26524310  0.66363911     0.07360
C274        C  0.68407094  0.36381572  0.31803830     0.04400
C275        C  0.65021527  0.34805227  0.30281931    -0.11750
C276        C  0.63696987  0.31190774  0.31444812     0.01900
C277        C  0.65774257  0.29323481  0.34352389    -0.10280
C278        C  0.68881433  0.31091318  0.36184059     0.04390
C279        C  0.70269443  0.34535918  0.34805382    -0.09700
H280        H  0.63466233  0.36404022  0.28153524     0.09990
H281        H  0.64961488  0.26498797  0.35259946     0.07510
H282        H  0.72821356  0.35758625  0.36054948     0.07360
C283        C  0.36170771  0.68255151  0.31498705     0.04400
C284        C  0.34419462  0.64884225  0.30018022    -0.11750
C285        C  0.31438650  0.62937612  0.31992050     0.01900
C286        C  0.30261351  0.64429377  0.35507519    -0.10280
C287        C  0.31381981  0.68082769  0.36599459     0.04390
C288        C  0.34064395  0.70042805  0.34431974    -0.09700
H289        H  0.35128731  0.63872679  0.27212856     0.09990
H290        H  0.28290265  0.62884488  0.37297969     0.07510
H291        H  0.34290374  0.73019275  0.35040032     0.07360
C292        C  0.35590037  0.31421685  0.32158132     0.04400
C293        C  0.33793712  0.29738182  0.35306262    -0.11750
C294        C  0.30695193  0.31554705  0.37133490     0.01900
C295        C  0.29351217  0.35025793  0.35667504    -0.10280
C296        C  0.30964670  0.36589504  0.32378000     0.04390
C297        C  0.34126783  0.34819868  0.30673680    -0.09700
H298        H  0.34843396  0.27038010  0.36358006     0.09990
H299        H  0.26999419  0.36490608  0.37035302     0.07510
H300        H  0.35398573  0.36045271  0.28142026     0.07360
C301        C  0.29863952  0.65516292  0.69880993     0.04400
C302        C  0.32925764  0.67398086  0.71644711    -0.11750
C303        C  0.35088403  0.70128186  0.69640557     0.01900
C304        C  0.33912635  0.71102581  0.65922874    -0.10280
C305        C  0.30588701  0.69534550  0.64310857     0.04390
C306        C  0.28613315  0.66695766  0.66281356    -0.09700
H307        H  0.33754920  0.66549201  0.74494202     0.09990
H308        H  0.35575818  0.73084534  0.64251091     0.07510
H309        H  0.26181421  0.65309856  0.64965153     0.07360
C310        C  0.63382321  0.31115051  0.68648805     0.04400
C311        C  0.64679416  0.29753777  0.65108986    -0.11750
C312        C  0.68065086  0.31198140  0.63454451     0.01900
C313        C  0.69890341  0.34291875  0.65246807    -0.10280
C314        C  0.68530428  0.35807011  0.68713863     0.04390
C315        C  0.65363327  0.34082396  0.70452346    -0.09700
H316        H  0.63110290  0.27496956  0.63703741     0.09990
H317        H  0.72412330  0.35505290  0.63956605     0.07510
H318        H  0.64373897  0.35103533  0.73197850     0.07360
C319        C  0.63962866  0.68882733  0.31420664     0.04400
C320        C  0.65560218  0.65560886  0.29879826    -0.11750
C321        C  0.68800678  0.63883871  0.31500121     0.01900
C322        C  0.70471818  0.65562587  0.34735350    -0.10280
C323        C  0.68930391  0.68847675  0.36404101     0.04390
C324        C  0.65664991  0.70501984  0.34700757    -0.09700
H325        H  0.64261024  0.64254325  0.27399054     0.09990
H326        H  0.72972705  0.64265538  0.36001445     0.07510
H327        H  0.64410173  0.73022825  0.35957534     0.07360
C328        C  0.67481850  0.62775406  0.68830764     0.04400
C329        C  0.64157750  0.64433182  0.70420535    -0.11750
C330        C  0.62703208  0.67864993  0.68958716     0.01900
C331        C  0.64419015  0.69540661  0.65802214    -0.10280
C332        C  0.67582007  0.67868228  0.64074221     0.04390
C333        C  0.69125826  0.64513925  0.65614915    -0.09700
H334        H  0.62781347  0.63141078  0.72858202     0.09990
H335        H  0.63340582  0.72234237  0.64752087     0.07510
H336        H  0.71710450  0.63347724  0.64385800     0.07360
C337        C  0.79795006  0.79783068  0.89891997    -0.04070
C338        C  0.78857649  0.81842628  0.93228698    -0.01190
C339        C  0.76876842  0.80067236  0.96262653     0.03800
C340        C  0.76518534  0.75979754  0.96468569    -0.04070
C341        C  0.78285272  0.73946263  0.93358118    -0.01170
C342        C  0.79192317  0.75823038  0.89925152     0.03800
C343        C  0.79946785  0.85813502  0.93601465     0.38450
C344        C  0.79859227  0.70146665  0.93689107     0.38440
C345        C  0.79433581  0.73614922  0.86428310     0.36860
C346        C  0.75075013  0.82591590  0.99004256     0.36870
N347        N  0.79589365  0.71840641  0.83648290    -0.37950
N348        N  0.73697659  0.84781850  0.01051461    -0.37960
N349        N  0.81242024  0.67159973  0.93858894    -0.37400
N350        N  0.80817513  0.88973040  0.93912333    -0.37400
C351        C  0.80004465  0.79668358  0.10254484    -0.04070
C352        C  0.76054936  0.78935979  0.10224884    -0.01190
C353        C  0.74209422  0.77819869  0.06811574     0.03800
C354        C  0.76342497  0.76099241  0.03725417    -0.04070
C355        C  0.80416487  0.76698484  0.03936576    -0.01170
C356        C  0.82065791  0.78873963  0.06910364     0.03800
C357        C  0.73801715  0.79498466  0.13655943     0.38450
C358        C  0.83062019  0.75025034  0.01227998     0.38440
C359        C  0.85725263  0.80672972  0.06281031     0.36860
C360        C  0.70320729  0.79192331  0.06446593     0.36870
N361        N  0.88535712  0.82242328  0.05579463    -0.37950
N362        N  0.67264176  0.80435266  0.06260348    -0.37960
N363        N  0.85331427  0.73754224  0.99195292    -0.37400
N364        N  0.71961585  0.79917562  0.16363010    -0.37400
C365        C  0.75754296  0.23704828  0.96510145    -0.04070
C366        C  0.73749921  0.21753519  0.93501006    -0.01190
C367        C  0.75602336  0.20857047  0.90061330     0.03800
C368        C  0.79618054  0.20615973  0.89894776    -0.04070
C369        C  0.81735121  0.21887796  0.93086744    -0.01170
C370        C  0.79869186  0.23691056  0.96198931     0.03800
C371        C  0.69981180  0.20095291  0.93911913     0.38450
C372        C  0.85835461  0.21324774  0.93222156     0.38440
C373        C  0.82233654  0.25571334  0.99048008     0.36860
C374        C  0.73292442  0.20254057  0.86659809     0.36870
N375        N  0.84126728  0.27072317  0.01301204    -0.37950
N376        N  0.71437085  0.19796155  0.83964295    -0.37960
N377        N  0.89106168  0.20873135  0.93344726    -0.37400
N378        N  0.67005712  0.18676421  0.94103655    -0.37400
C379        C  0.75444318  0.23830155  0.03947873    -0.04070
C380        C  0.77691733  0.20360372  0.03979301    -0.01190
C381        C  0.79804723  0.19261215  0.07232978     0.03800
C382        C  0.79425224  0.21241695  0.10681814    -0.04070
C383        C  0.76933439  0.24331530  0.10882689    -0.01170
C384        C  0.74665462  0.25332118  0.07697815     0.03800
C385        C  0.77381451  0.17471665  0.01014253     0.38450
C386        C  0.76400615  0.26226354  0.14532140     0.38440
C387        C  0.70900290  0.26595598  0.08782153     0.36860
C388        C  0.82324389  0.15974338  0.07071671     0.36870
N389        N  0.67928464  0.27325042  0.10030290    -0.37950
N390        N  0.84343433  0.13371258  0.06953917    -0.37960
N391        N  0.75988159  0.27705419  0.17452711    -0.37400
N392        N  0.77166973  0.15091414  0.98736644    -0.37400
C393        C  0.22291843  0.78752003  0.88180884    -0.04070
C394        C  0.24252138  0.80987941  0.90923765    -0.01190
C395        C  0.25997215  0.79282654  0.94178659     0.03800
C396        C  0.24816585  0.75585495  0.95517712    -0.04070
C397        C  0.22138233  0.73721659  0.92954039    -0.01170
C398        C  0.21666079  0.74928361  0.89147846     0.03800
C399        C  0.24307832  0.85108997  0.90593679     0.38450
C400        C  0.19329288  0.70944820  0.94157392     0.38440
C401        C  0.20453096  0.72176237  0.86300755     0.36860
C402        C  0.29002777  0.81521704  0.95859309     0.36870
N403        N  0.19494625  0.69946686  0.84064675    -0.37950
N404        N  0.31400920  0.83600818  0.96770178    -0.37960
N405        N  0.16953343  0.68778638  0.94884120    -0.37400
N406        N  0.24347801  0.88391647  0.90366054    -0.37400
C407        C  0.20717820  0.79326833  0.09714564    -0.04070
C408        C  0.19491978  0.80323807  0.06037148    -0.01190
C409        C  0.20863937  0.78365321  0.02774495     0.03800
C410        C  0.23811819  0.75514446  0.03099055    -0.04070
C411        C  0.24777974  0.74394655  0.06948656    -0.01170
C412        C  0.23274604  0.76313482  0.10167820     0.03800
C413        C  0.16698375  0.83361478  0.05628379     0.38450
C414        C  0.27169506  0.71148509  0.07779592     0.38440
C415        C  0.24408223  0.75221190  0.14005290     0.36860
C416        C  0.18810711  0.79123481  0.99269971     0.36870
N417        N  0.25302995  0.74355938  0.17060810    -0.37950
N418        N  0.17007418  0.79839509  0.96596062    -0.37960
N419        N  0.28909430  0.68569816  0.08853603    -0.37400
N420        N  0.14483897  0.85784474  0.05316946    -0.37400
C421        C  0.23545411  0.23365061  0.96254687    -0.04070
C422        C  0.23234340  0.19257106  0.96092227    -0.01190
C423        C  0.21071391  0.17415471  0.93206234     0.03800
C424        C  0.19721169  0.19474241  0.90059096    -0.04070
C425        C  0.20385527  0.23399231  0.89946654    -0.01170
C426        C  0.21586218  0.25351358  0.93232836     0.03800
C427        C  0.25208630  0.16775729  0.98738393     0.38450
C428        C  0.20114700  0.25430098  0.86358883     0.38440
C429        C  0.20160407  0.29215449  0.93518874     0.36860
C430        C  0.20334855  0.13356679  0.93420832     0.36870
N431        N  0.18904824  0.32259245  0.93664280    -0.37950
N432        N  0.19752541  0.10122882  0.93586917    -0.37960
N433        N  0.20042383  0.27034739  0.83481683    -0.37400
N434        N  0.26701134  0.14568113  0.00675749    -0.37400
C435        C  0.23839418  0.23353222  0.03474716    -0.04070
C436        C  0.26116848  0.21620265  0.06431097    -0.01190
C437        C  0.24488563  0.20710220  0.09953323     0.03800
C438        C  0.20565489  0.19982019  0.10234048    -0.04070
C439        C  0.18253060  0.20764621  0.07030018    -0.01170
C440        C  0.19780477  0.22730818  0.03846790     0.03800
C441        C  0.29955569  0.20132502  0.05909630     0.38450
C442        C  0.14275760  0.19599102  0.07004051     0.38440
C443        C  0.17048196  0.24230779  0.01119994     0.36860
C444        C  0.26930469  0.20724583  0.13289965     0.36870
N445        N  0.14730235  0.25381425  0.99069986    -0.37950
N446        N  0.28999491  0.20902394  0.15852708    -0.37960
N447        N  0.11106791  0.18670907  0.06979256    -0.37400
N448        N  0.32984795  0.18846426  0.05602790    -0.37400
C449        C  0.76701199  0.96581892  0.76129891    -0.04070
C450        C  0.80771295  0.96414731  0.76648148    -0.01190
C451        C  0.82424504  0.93703231  0.79102714     0.03800
C452        C  0.80319095  0.90488058  0.80279062    -0.04070
C453        C  0.76475023  0.90176490  0.79090873    -0.01170
C454        C  0.74596777  0.93250884  0.77287023     0.03800
C455        C  0.83293053  0.99164312  0.74843596     0.38450
C456        C  0.74474296  0.86561939  0.79474526     0.38440
C457        C  0.70606999  0.92597789  0.76378706     0.36860
C458        C  0.86194737  0.94459353  0.80656422     0.36870
N459        N  0.67440142  0.91881052  0.75754408    -0.37950
N460        N  0.89193873  0.95085193  0.81894454    -0.37960
N461        N  0.72871394  0.83698708  0.79752181    -0.37400
N462        N  0.85314442  0.01335468  0.73412524    -0.37400
C463        C  0.76077763  0.04030626  0.76444740    -0.04070
C464        C  0.74537447  0.07711657  0.75473199    -0.01190
C465        C  0.76215138  0.11120169  0.76899428     0.03800
C466        C  0.79359535  0.10976457  0.79394153    -0.04070
C467        C  0.80499890  0.07445931  0.80823974    -0.01170
C468        C  0.78534779  0.04110496  0.79770828     0.03800
C469        C  0.71210769  0.08114076  0.73027910     0.38450
C470        C  0.83618951  0.07257483  0.83562192     0.38440
C471        C  0.78623748  0.01134242  0.82635538     0.36860
C472        C  0.74736913  0.14800681  0.75754481     0.36870
N473        N  0.78743271  0.98885498  0.85041426    -0.37950
N474        N  0.73561544  0.17735725  0.74838112    -0.37960
N475        N  0.86110545  0.07110329  0.85726923    -0.37400
N476        N  0.68564465  0.08517244  0.71089472    -0.37400
C477        C  0.95815164  0.24831163  0.75331294    -0.04070
C478        C  0.92935286  0.27133579  0.77249318    -0.01190
C479        C  0.89658539  0.25403471  0.78954494     0.03800
C480        C  0.89312741  0.21399205  0.79137830    -0.04070
C481        C  0.92047188  0.19241921  0.77147987    -0.01170
C482        C  0.94514965  0.21063507  0.74611069     0.03800
C483        C  0.92713238  0.31243002  0.76964440     0.38450
C484        C  0.92157100  0.15127869  0.77343919     0.38440
C485        C  0.94064724  0.19779906  0.70701650     0.36860
C486        C  0.86501934  0.27771059  0.80250259     0.36870
N487        N  0.93604122  0.18744224  0.67597337    -0.37950
N488        N  0.83993253  0.29666025  0.81257500    -0.37960
N489        N  0.92265596  0.11842579  0.77492214    -0.37400
N490        N  0.92238877  0.34494864  0.76743215    -0.37400
C491        C  0.03307776  0.23803726  0.75803753    -0.04070
C492        C  0.03413722  0.19703979  0.76147276    -0.01190
C493        C  0.06116140  0.17818369  0.78536383     0.03800
C494        C  0.08984200  0.19831006  0.80507102    -0.04070
C495        C  0.08807614  0.23825815  0.80331744    -0.01170
C496        C  0.06528320  0.25662234  0.77583734     0.03800
C497        C  0.01597156  0.17211894  0.73402428     0.38450
C498        C  0.10746145  0.26211653  0.83096987     0.38440
C499        C  0.08175326  0.29195574  0.76225032     0.36860
C500        C  0.05786750  0.13745283  0.79079300     0.36870
N501        N  0.09688891  0.31974915  0.75314929    -0.37950
N502        N  0.05336133  0.10512274  0.79449316    -0.37960
N503        N  0.12024071  0.28251867  0.85355108    -0.37400
N504        N  0.00503385  0.14964449  0.71244007    -0.37400
C505        C  0.22354056  0.89212523  0.78496480    -0.04070
C506        C  0.25362413  0.89329561  0.75898237    -0.01190
C507        C  0.26619681  0.92845681  0.74370193     0.03800
C508        C  0.24972896  0.96445628  0.75582905    -0.04070
C509        C  0.22527076  0.96161370  0.78903937    -0.01170
C510        C  0.21001563  0.92618797  0.80064312     0.03800
C511        C  0.27073188  0.85753203  0.74700705     0.38450
C512        C  0.21850128  0.99257912  0.81555369     0.38440
C513        C  0.18111335  0.92447588  0.83037211     0.36860
C514        C  0.29481669  0.92494640  0.71422238     0.36870
N515        N  0.15812715  0.92290690  0.85399345    -0.37950
N516        N  0.31783542  0.91761241  0.69171331    -0.37960
N517        N  0.21281174  0.01580383  0.83833296    -0.37400
N518        N  0.28428686  0.82884010  0.73819628    -0.37400
C519        C  0.23972824  0.04026883  0.75358579    -0.04070
C520        C  0.25975543  0.07386706  0.76709687    -0.01190
C521        C  0.23960503  0.10542074  0.78300569     0.03800
C522        C  0.20009303  0.10347510  0.79045675    -0.04070
C523        C  0.18042553  0.07096039  0.77833537    -0.01170
C524        C  0.19863735  0.04268124  0.75604705     0.03800
C525        C  0.30021207  0.08034505  0.76092142     0.38450
C526        C  0.14286466  0.06315247  0.79385268     0.38440
C527        C  0.17333437  0.01482567  0.73903877     0.36860
C528        C  0.25968973  0.14086134  0.79068546     0.36870
N529        N  0.15005398  0.99485071  0.72689753    -0.37950
N530        N  0.27574627  0.16899928  0.79671294    -0.37960
N531        N  0.11394667  0.05503542  0.80742307    -0.37400
N532        N  0.33201645  0.08782572  0.75594913    -0.37400
C533        C  0.97090656  0.76519721  0.76877633    -0.04070
C534        C  0.96245878  0.80381753  0.75958317    -0.01190
C535        C  0.92757295  0.82033450  0.77167940     0.03800
C536        C  0.90857057  0.80630890  0.80487233    -0.04070
C537        C  0.92639992  0.77508814  0.82287741    -0.01170
C538        C  0.95111708  0.75100262  0.80212073     0.03800
C539        C  0.98654669  0.82587224  0.73426437     0.38450
C540        C  0.92377879  0.77012651  0.86400493     0.38440
C541        C  0.95817601  0.71416420  0.81967911     0.36860
C542        C  0.91085482  0.84819243  0.74614651     0.36870
N543        N  0.96324514  0.68540221  0.83490032    -0.37950
N544        N  0.89794646  0.86973347  0.72477228    -0.37960
N545        N  0.92185158  0.76605393  0.89669936    -0.37400
N546        N  0.00445344  0.84502612  0.71435428    -0.37400
C547        C  0.11518621  0.79825656  0.78404225    -0.04070
C548        C  0.10819968  0.79055640  0.74521139    -0.01190
C549        C  0.07126668  0.77925489  0.73241297     0.03800
C550        C  0.04279507  0.76527452  0.75882850    -0.04070
C551        C  0.05093926  0.77493949  0.79841448    -0.01170
C552        C  0.08471501  0.79432442  0.80943565     0.03800
C553        C  0.13907703  0.79453062  0.71789096     0.38450
C554        C  0.02792350  0.76358158  0.83053602     0.38440
C555        C  0.08841827  0.81010827  0.84777524     0.36860
C556        C  0.06336520  0.78724435  0.69266125     0.36870
N557        N  0.09147969  0.82269687  0.87815487    -0.37950
N558        N  0.05844156  0.79498703  0.66094854    -0.37960
N559        N  0.01357593  0.75689814  0.85948002    -0.37400
N560        N  0.16365403  0.79751062  0.69606857    -0.37400
C561        C  0.24262268  0.96293263  0.22815506    -0.04070
C562        C  0.25224459  0.92352749  0.23453317    -0.01190
C563        C  0.23244268  0.89385305  0.21568171     0.03800
C564        C  0.20432643  0.90189808  0.18841955    -0.04070
C565        C  0.19781262  0.93943168  0.17766613    -0.01170
C566        C  0.21903128  0.96926607  0.19451189     0.03800
C567        C  0.28320824  0.91115353  0.25877835     0.38450
C568        C  0.17045266  0.94708716  0.14741531     0.38440
C569        C  0.22093210  0.00344187  0.17136273     0.36860
C570        C  0.24019192  0.85428389  0.22528050     0.36870
N571        N  0.22244608  0.02955530  0.15135374    -0.37950
N572        N  0.24617188  0.82284716  0.23293191    -0.37960
N573        N  0.14866251  0.95310779  0.12334172    -0.37400
N574        N  0.30781214  0.89693023  0.27558684    -0.37400
C575        C  0.24434920  0.03675206  0.23976304    -0.04070
C576        C  0.20359413  0.04338477  0.23942487    -0.01190
C577        C  0.18807265  0.07406396  0.21886970     0.03800
C578        C  0.21035680  0.10588258  0.21067798    -0.04070
C579        C  0.24956548  0.10397900  0.21854300    -0.01170
C580        C  0.26715985  0.06870178  0.22740756     0.03800
C581        C  0.17577372  0.01719082  0.25490835     0.38450
C582        C  0.27151003  0.13883030  0.22077803     0.38440
C583        C  0.30842973  0.06889791  0.22550300     0.36860
C584        C  0.15192950  0.06881635  0.19936776     0.36870
N585        N  0.34123761  0.07254368  0.22388164    -0.37950
N586        N  0.12468508  0.06215726  0.18195630    -0.37960
N587        N  0.28955450  0.16603428  0.22494634    -0.37400
N588        N  0.15070343  0.99887028  0.26594101    -0.37400
C589        C  0.90546914  0.80299879  0.20307008    -0.04070
C590        C  0.90878078  0.80107744  0.24309390    -0.01190
C591        C  0.94332534  0.78913980  0.26046947     0.03800
C592        C  0.97129295  0.76727748  0.23938436    -0.04070
C593        C  0.96703011  0.76992010  0.19839681    -0.01170
C594        C  0.93671396  0.79052863  0.18135908     0.03800
C595        C  0.87647601  0.81115669  0.26710658     0.38450
C596        C  0.98934432  0.74782084  0.17158650     0.38440
C597        C  0.93830012  0.79865003  0.14085814     0.36860
C598        C  0.94906363  0.80315941  0.29898527     0.36870
N599        N  0.94162141  0.80459149  0.10864187    -0.37950
N600        N  0.95198548  0.81529092  0.32959572    -0.37960
N601        N  0.00319495  0.73054515  0.14709900    -0.36000
N602        N  0.85085010  0.81913168  0.28634746    -0.37400
C603        C  0.04302086  0.76185255  0.23881523    -0.04070
C604        C  0.05353919  0.80054433  0.24625961    -0.01190
C605        C  0.08835604  0.81527079  0.23197866     0.03800
C606        C  0.10453173  0.80032181  0.19801653    -0.04070
C607        C  0.08715984  0.76698535  0.18378692    -0.01170
C608        C  0.06410725  0.74441494  0.20780071     0.03800
C609        C  0.03229042  0.82503842  0.27183477     0.38450
C610        C  0.08876412  0.75755714  0.14340937     0.38440
C611        C  0.06197559  0.70466151  0.19667928     0.36860
C612        C  0.10850703  0.84234683  0.25575052     0.36870
N613        N  0.06160061  0.67334502  0.18639148    -0.37950
N614        N  0.12398237  0.86314173  0.27612824    -0.37960
N615        N  0.08963999  0.75010767  0.11124235    -0.37400
N616        N  0.01835807  0.84705711  0.29204537    -0.37400
C617        C  0.80188681  0.90150507  0.19985989    -0.04070
C618        C  0.81406998  0.93822060  0.19132116    -0.01190
C619        C  0.79593672  0.97048302  0.20770589     0.03800
C620        C  0.76555288  0.96664155  0.23575337    -0.04070
C621        C  0.75276349  0.92791041  0.24191277    -0.01170
C622        C  0.77137974  0.89635592  0.22491151     0.03800
C623        C  0.84571445  0.94255698  0.16472131     0.38450
C624        C  0.72001878  0.91807408  0.26494186     0.38440
C625        C  0.75986703  0.85769372  0.23429257     0.36860
C626        C  0.80916246  0.00608423  0.19202530     0.36870
N627        N  0.75088622  0.82702932  0.24210366    -0.37950
N628        N  0.82212424  0.03241108  0.17713180    -0.37960
N629        N  0.69397421  0.90577002  0.28098516    -0.37400
N630        N  0.87089094  0.94585021  0.14364818    -0.37400
C631        C  0.76064895  0.04197356  0.24281656    -0.04070
C632        C  0.79585047  0.05865172  0.25611004    -0.01190
C633        C  0.80751148  0.09524557  0.24380331     0.03800
C634        C  0.79395536  0.11030201  0.20861882    -0.04070
C635        C  0.76190098  0.09120897  0.19270989    -0.01170
C636        C  0.74160809  0.06413566  0.21430557     0.03800
C637        C  0.82265467  0.03864689  0.28045115     0.38450
C638        C  0.75069106  0.09556844  0.15316009     0.38440
C639        C  0.70075144  0.06864057  0.21263327     0.36860
C640        C  0.83277712  0.11633502  0.26886943     0.36870
N641        N  0.66835162  0.07470026  0.21081564    -0.37950
N642        N  0.85307578  0.13140533  0.29011252    -0.37960
N643        N  0.74171527  0.09842046  0.12150865    -0.37400
N644        N  0.84563662  0.02461659  0.29954327    -0.37400
C645        C  0.96742850  0.24008662  0.23511710    -0.04070
C646        C  0.93697334  0.22256864  0.25644849    -0.01190
C647        C  0.90290754  0.21221108  0.23827617     0.03800
C648        C  0.90250601  0.20444284  0.19909367    -0.04070
C649        C  0.93483261  0.21365705  0.17737853    -0.01170
C650        C  0.96559911  0.23387370  0.19427847     0.03800
C651        C  0.94045586  0.20858317  0.29520881     0.38450
C652        C  0.93566946  0.20386676  0.13710753     0.38440
C653        C  0.99338049  0.24959944  0.16808260     0.36860
C654        C  0.86763207  0.21212525  0.26000707     0.36870
N655        N  0.01398917  0.26118670  0.14511514    -0.37950
N656        N  0.83942713  0.21326756  0.27713153    -0.37960
N657        N  0.93627508  0.19608857  0.10502360    -0.37400
N658        N  0.94230417  0.19622224  0.32574028    -0.37400
C659        C  0.03960203  0.24337934  0.23547713    -0.04070
C660        C  0.06935221  0.26406083  0.21599977    -0.01190
C661        C  0.10452591  0.24651090  0.20767482     0.03800
C662        C  0.10737909  0.20661699  0.20619793    -0.04070
C663        C  0.07553418  0.18502083  0.21755671    -0.01170
C664        C  0.04357424  0.20264573  0.23467492     0.03800
C665        C  0.06414077  0.30135177  0.19900291     0.38450
C666        C  0.07455476  0.14429114  0.21173491     0.38440
C667        C  0.01658303  0.17743351  0.25327486     0.36860
C668        C  0.13779659  0.27011714  0.20034994     0.36870
N669        N  0.99703790  0.15501360  0.26738798    -0.37950
N670        N  0.16421779  0.28900189  0.19464346    -0.37960
N671        N  0.07088261  0.11186514  0.20804529    -0.37400
N672        N  0.06091699  0.33073494  0.18450451    -0.37400
C673        C  0.25498892  0.26065150  0.47141822    -0.04070
C674        C  0.29588463  0.26524605  0.46705618    -0.01190
C675        C  0.31172322  0.28686080  0.43695748     0.03800
C676        C  0.28897537  0.29846582  0.40615861    -0.04070
C677        C  0.24917011  0.29436729  0.40929687    -0.01170
C678        C  0.23250191  0.28095811  0.44342215     0.03800
C679        C  0.32382751  0.24473588  0.48944686     0.38450
C680        C  0.22447211  0.30406594  0.37744930     0.38440
C681        C  0.19312853  0.29260770  0.44891829     0.36860
C682        C  0.35215162  0.29655047  0.43743315     0.36870
N683        N  0.16198143  0.30331530  0.45170630    -0.37950
N684        N  0.38426918  0.30425136  0.43783704    -0.37960
N685        N  0.20379829  0.31156060  0.35284449    -0.37400
N686        N  0.34919905  0.22928602  0.50385481    -0.37400
C687        C  0.25786398  0.25644294  0.54281091    -0.04070
C688        C  0.25103327  0.29563895  0.55196774    -0.01190
C689        C  0.26374796  0.31071035  0.58700526     0.03800
C690        C  0.29670671  0.29597869  0.60473456    -0.04070
C691        C  0.31075669  0.26112871  0.58979627    -0.01170
C692        C  0.28793583  0.23886418  0.56484406     0.03800
C693        C  0.22808177  0.32073921  0.52861440     0.38450
C694        C  0.34959293  0.24848588  0.59692001     0.38440
C695        C  0.29971758  0.19941769  0.56055715     0.36860
C696        C  0.23781156  0.33543214  0.60759575     0.36870
N697        N  0.31038350  0.16834013  0.55799014    -0.37950
N698        N  0.21517308  0.35282885  0.62413043    -0.37960
N699        N  0.38019860  0.23697961  0.60155868    -0.37400
N700        N  0.21037052  0.34309326  0.51211659    -0.37400
C701        C  0.73713871  0.25297214  0.46117582    -0.04070
C702        C  0.69935201  0.26970513  0.46109554    -0.01190
C703        C  0.68642120  0.29224673  0.43047118     0.03800
C704        C  0.70655850  0.29322149  0.39608632    -0.04070
C705        C  0.74104632  0.27344272  0.39310719    -0.01170
C706        C  0.75480532  0.25131907  0.42397505     0.03800
C707        C  0.67031426  0.25955893  0.48881857     0.38450
C708        C  0.76122484  0.27380147  0.35681444     0.38440
C709        C  0.77867533  0.22013369  0.41184414     0.36860
C710        C  0.65235222  0.31544640  0.43473778     0.36870
N711        N  0.79585539  0.19592933  0.39740772    -0.37950
N712        N  0.62569233  0.33453960  0.43844881    -0.37960
N713        N  0.77723392  0.27412703  0.32796208    -0.37400
N714        N  0.64589570  0.25213054  0.50972655    -0.37400
C715        C  0.73468096  0.25628520  0.53522151    -0.04070
C716        C  0.73117752  0.29711887  0.53769864    -0.01190
C717        C  0.71128360  0.31489409  0.56829522     0.03800
C718        C  0.69824029  0.29341873  0.59979745    -0.04070
C719        C  0.70194967  0.25357819  0.59796955    -0.01170
C720        C  0.71402415  0.23559161  0.56411342     0.03800
C721        C  0.74803508  0.32156651  0.50884062     0.38450
C722        C  0.69335761  0.23024921  0.63105341     0.38440
C723        C  0.69770526  0.19812749  0.55783440     0.36860
C724        C  0.70390172  0.35547361  0.56681485     0.36870
N725        N  0.68365538  0.16862956  0.55354855    -0.37950
N726        N  0.69804951  0.38783570  0.56553385    -0.37960
N727        N  0.68671687  0.21158200  0.65736352    -0.37400
N728        N  0.76146703  0.34117198  0.48603941    -0.37400
C729        C  0.10981950  0.24447654  0.50302564    -0.04070
C730        C  0.12979296  0.26379060  0.53180117    -0.01190
C731        C  0.16901661  0.25651358  0.53766588     0.03800
C732        C  0.19174686  0.23936490  0.50787446    -0.04070
C733        C  0.16984261  0.22016744  0.47849093    -0.01170
C734        C  0.12974044  0.21864586  0.47995002     0.03800
C735        C  0.10920218  0.28866922  0.55779283     0.38450
C736        C  0.18656492  0.20573411  0.44347557     0.38440
C737        C  0.10931134  0.19128256  0.45641157     0.36860
C738        C  0.18180210  0.26238554  0.57646802     0.36870
N739        N  0.09327582  0.16921130  0.43782953    -0.37950
N740        N  0.18899900  0.26688478  0.60839592    -0.37960
N741        N  0.19727444  0.19504394  0.41412203    -0.37400
N742        N  0.09278540  0.30876261  0.57815127    -0.37400
C743        C  0.99630609  0.25282226  0.60979322    -0.04070
C744        C  0.02289398  0.23036552  0.62962592    -0.01190
C745        C  0.02640042  0.23383514  0.66982325     0.03800
C746        C  0.99770864  0.25387378  0.69171710    -0.04070
C747        C  0.96855018  0.27283522  0.66981781    -0.01170
C748        C  0.97143770  0.27612261  0.63020832     0.03800
C749        C  0.05020431  0.20774645  0.60812898     0.38450
C750        C  0.93455014  0.28995059  0.68582967     0.38440
C751        C  0.95011285  0.30581456  0.61092630     0.36860
C752        C  0.06325296  0.22300957  0.68537644     0.36870
N753        N  0.93436245  0.33097846  0.59683017    -0.37950
N754        N  0.09329060  0.21457567  0.69631269    -0.37960
N755        N  0.90537332  0.30338350  0.69350067    -0.37400
N756        N  0.07205106  0.18985879  0.59102879    -0.37400
C757        C  0.00021323  0.26410459  0.38173572    -0.04070
C758        C  0.03261080  0.25085027  0.36298159    -0.01190
C759        C  0.03248428  0.24494384  0.32318611     0.03800
C760        C  0.00180496  0.25981064  0.29978297    -0.04070
C761        C  0.97120033  0.27873124  0.32045280    -0.01170
C762        C  0.96981553  0.27873289  0.36069371     0.03800
C763        C  0.06830110  0.24910279  0.38405492     0.38450
C764        C  0.93861948  0.29600870  0.30151039     0.38440
C765        C  0.93700104  0.29434535  0.38077659     0.36860
C766        C  0.06657317  0.22630364  0.30899063     0.36870
N767        N  0.91090388  0.30680996  0.39670752    -0.37950
N768        N  0.09503735  0.21176792  0.30058336    -0.37960
N769        N  0.91141056  0.30967454  0.28872133    -0.37400
N770        N  0.09754312  0.25002470  0.39932966    -0.37400
C771        C  0.80190790  0.24572155  0.50001972    -0.04070
C772        C  0.82831625  0.22460390  0.47645695    -0.01190
C773        C  0.86423493  0.23909186  0.46661711     0.03800
C774        C  0.88119722  0.26725346  0.48896576    -0.04070
C775        C  0.85806574  0.28716626  0.51476808    -0.01170
C776        C  0.82050919  0.27434980  0.52318532     0.03800
C777        C  0.82611688  0.18387081  0.47029861     0.38450
C778        C  0.87166717  0.32252839  0.53093121     0.38440
C779        C  0.80742202  0.28442674  0.56107432     0.36860
C780        C  0.88549823  0.22211526  0.43514467     0.36870
N781        N  0.79871259  0.29265078  0.59186859    -0.37950
N782        N  0.90227263  0.20846117  0.41020668    -0.37960
N783        N  0.88091235  0.35199296  0.54236778    -0.37400
N784        N  0.82825442  0.15156407  0.46428615    -0.37400
C785        C  0.99325223  0.73863537  0.61760194    -0.04070
C786        C  0.96956582  0.76302177  0.63874334    -0.01190
C787        C  0.96744711  0.75970745  0.67910711     0.03800
C788        C  0.99771974  0.74146199  0.70061392    -0.04070
C789        C  0.02183922  0.71720189  0.67749890    -0.01170
C790        C  0.01487246  0.71184300  0.63812029     0.03800
C791        C  0.94323156  0.78796796  0.61876314     0.38450
C792        C  0.05653056  0.69974620  0.69179470     0.38440
C793        C  0.02884865  0.67760625  0.61964649     0.36860
C794        C  0.93038735  0.76927653  0.69445469     0.36870
N795        N  0.03933417  0.64977227  0.60539833    -0.37950
N796        N  0.89933322  0.77648934  0.70315667    -0.37960
N797        N  0.08523820  0.68605916  0.70071731    -0.37400
N798        N  0.92196237  0.80786239  0.60332938    -0.37400
C799        C  0.00525618  0.74465080  0.30430845    -0.04070
C800        C  0.97191763  0.73040951  0.32429164    -0.01190
C801        C  0.96902261  0.73265650  0.36456522     0.03800
C802        C  0.00134666  0.74025021  0.38660716    -0.04070
C803        C  0.03625576  0.74468605  0.36822535    -0.01170
C804        C  0.03782577  0.75236867  0.32871928     0.03800
C805        C  0.93852893  0.71575071  0.30469790     0.38450
C806        C  0.07083209  0.73432577  0.38856816     0.38440
C807        C  0.07485204  0.76541731  0.31607403     0.36860
C808        C  0.93268617  0.72647488  0.38355181     0.36870
N809        N  0.10566191  0.77509147  0.30916397    -0.37950
N810        N  0.90367438  0.72191607  0.39860776    -0.37960
N811        N  0.09836465  0.72367110  0.40332483    -0.37400
N812        N  0.91032933  0.70425416  0.29191443    -0.37400
C813        C  0.73459258  0.73664114  0.47207427    -0.04070
C814        C  0.72636823  0.69649618  0.46757194    -0.01190
C815        C  0.71273336  0.68106414  0.43243768     0.03800
C816        C  0.70645028  0.70437777  0.40031919    -0.04070
C817        C  0.71247179  0.74353590  0.40450211    -0.01170
C818        C  0.71974745  0.75939246  0.44080411     0.03800
C819        C  0.72203457  0.67127406  0.49990157     0.38450
C820        C  0.70966537  0.76840704  0.37152582     0.38440
C821        C  0.70270626  0.79677388  0.44588238     0.36860
C822        C  0.70237386  0.64099848  0.43039471     0.36870
N823        N  0.68822806  0.82624908  0.44881825    -0.37950
N824        N  0.69422126  0.60914281  0.42887217    -0.37960
N825        N  0.70751742  0.78826863  0.34533592    -0.37400
N826        N  0.71623144  0.64995320  0.52435423    -0.37400
C827        C  0.73347252  0.73732415  0.54731627    -0.04070
C828        C  0.69266143  0.73152447  0.54738925    -0.01190
C829        C  0.67477414  0.70989290  0.57618989     0.03800
C830        C  0.69510279  0.69892236  0.60892128    -0.04070
C831        C  0.73339335  0.70949839  0.61271677    -0.01170
C832        C  0.75330384  0.72587721  0.58188124     0.03800
C833        C  0.66782108  0.74739510  0.51831276     0.38450
C834        C  0.75229703  0.70443804  0.64949577     0.38440
C835        C  0.79390131  0.72987868  0.58883803     0.36860
C836        C  0.63532595  0.69790146  0.57148796     0.36870
N837        N  0.82592775  0.73131668  0.59701766    -0.37950
N838        N  0.60399789  0.68816238  0.56768546    -0.37960
N839        N  0.76722775  0.70060735  0.67870243    -0.37400
N840        N  0.64619265  0.75913494  0.49631640    -0.37400
C841        C  0.79912875  0.74766287  0.51255410    -0.04070
C842        C  0.82481792  0.77692543  0.52594935    -0.01190
C843        C  0.86343528  0.77719427  0.51551752     0.03800
C844        C  0.88098898  0.74395358  0.50100243    -0.04070
C845        C  0.85754179  0.71197398  0.49403031    -0.01170
C846        C  0.81779976  0.71293970  0.50226484     0.03800
C847        C  0.81350690  0.80495846  0.55458404     0.38450
C848        C  0.87419373  0.67694850  0.47953258     0.38440
C849        C  0.80257561  0.67678810  0.51398477     0.36860
C850        C  0.88425939  0.81270270  0.52013615     0.36870
N851        N  0.79550794  0.64666308  0.52516273    -0.37950
N852        N  0.90028370  0.84130965  0.52336146    -0.37960
N853        N  0.88718483  0.64887412  0.46813597    -0.37400
N854        N  0.80570895  0.82711463  0.57776812    -0.37400
C855        C  0.76047739  0.11121551  0.49926819    -0.04070
C856        C  0.74381427  0.13124275  0.46926727    -0.01190
C857        C  0.73425921  0.16952512  0.47355037     0.03800
C858        C  0.75277510  0.19208587  0.50217285    -0.04070
C859        C  0.77209649  0.17141332  0.53207587    -0.01170
C860        C  0.77442969  0.13123022  0.53104803     0.03800
C861        C  0.74735376  0.11675731  0.43085108     0.38450
C862        C  0.78976128  0.19062557  0.56420949     0.38440
C863        C  0.79439020  0.11076878  0.56095257     0.36860
C864        C  0.70335811  0.18252376  0.44935700     0.36870
N865        N  0.81080421  0.09462616  0.58456773    -0.37950
N866        N  0.67841793  0.19106967  0.42943170    -0.37960
N867        N  0.80394506  0.20423703  0.59074163    -0.37400
N868        N  0.75325822  0.10835785  0.39951189    -0.37400
C869        C  0.75399051  0.88243914  0.50635501    -0.04070
C870        C  0.77875977  0.85987201  0.48447306    -0.01190
C871        C  0.77250775  0.82053456  0.48103955     0.03800
C872        C  0.74946922  0.80028268  0.50866771    -0.04070
C873        C  0.72809933  0.82401415  0.53482166    -0.01170
C874        C  0.72782554  0.86421151  0.53073663     0.03800
C875        C  0.81367599  0.87579421  0.46912166     0.38450
C876        C  0.70893569  0.80995915  0.56853852     0.38440
C877        C  0.70319349  0.88718082  0.55501231     0.36860
C878        C  0.79276568  0.80097478  0.45039503     0.36870
N879        N  0.68353679  0.90536678  0.57430847    -0.37950
N880        N  0.80896114  0.78576272  0.42596680    -0.37960
N881        N  0.69354842  0.80098324  0.59631314    -0.37400
N882        N  0.84257242  0.88774080  0.45858613    -0.37400
C883        C  0.76334973  0.00180468  0.61568382    -0.04070
C884        C  0.75092690  0.03348623  0.63665588    -0.01190
C885        C  0.76067211  0.03642713  0.67545919     0.03800
C886        C  0.76536208  0.00306778  0.69783636    -0.04070
C887        C  0.77904131  0.97037857  0.67604754    -0.01170
C888        C  0.78092381  0.97180629  0.63549912     0.03800
C889        C  0.73199153  0.06504576  0.61815773     0.38450
C890        C  0.78730182  0.93328874  0.69209805     0.38440
C891        C  0.79677452  0.94013757  0.61389818     0.36860
C892        C  0.78447905  0.06893419  0.68402226     0.36870
N893        N  0.80941813  0.91507902  0.59658612    -0.37950
N894        N  0.80405363  0.09483058  0.68978298    -0.37960
N895        N  0.79423996  0.90296112  0.70287654    -0.37400
N896        N  0.71620795  0.09007734  0.60367957    -0.37400
C897        C  0.75442587  0.99625255  0.38502034    -0.04070
C898        C  0.73440382  0.02549780  0.36651352    -0.01190
C899        C  0.73859361  0.03125295  0.32684336     0.03800
C900        C  0.75505951  0.00204652  0.30297775    -0.04070
C901        C  0.77699267  0.97360961  0.32247311    -0.01170
C902        C  0.77539947  0.97032357  0.36269191     0.03800
C903        C  0.70440384  0.04562210  0.38683738     0.38450
C904        C  0.80514029  0.95006518  0.30332220     0.38440
C905        C  0.79137850  0.93674153  0.38019090     0.36860
C906        C  0.72129369  0.06530247  0.31096423     0.36870
N907        N  0.80344595  0.90850207  0.39180137    -0.37950
N908        N  0.70740062  0.09280164  0.29932772    -0.37960
N909        N  0.82855426  0.93131291  0.28950883    -0.37400
N910        N  0.67986460  0.06107103  0.40264143    -0.37400
C911        C  0.25885644  0.73480588  0.46354466    -0.04070
C912        C  0.29995288  0.73137017  0.46132512    -0.01190
C913        C  0.31736100  0.71055066  0.43140013     0.03800
C914        C  0.29582439  0.69981609  0.39930466    -0.04070
C915        C  0.25666610  0.70701219  0.39916565    -0.01170
C916        C  0.23819461  0.71616145  0.43325490     0.03800
C917        C  0.32533413  0.74997303  0.48828646     0.38450
C918        C  0.23547549  0.70770152  0.36364924     0.38440
C919        C  0.20115487  0.69832058  0.43758852     0.36860
C920        C  0.35753722  0.70065663  0.43341313     0.36870
N921        N  0.17205934  0.68297287  0.44033255    -0.37950
N922        N  0.38946520  0.69237865  0.43522351    -0.37960
N923        N  0.21878388  0.70991255  0.33523118    -0.37400
N924        N  0.34675326  0.76445922  0.50883920    -0.37400
C925        C  0.26055449  0.73942505  0.53594395    -0.04070
C926        C  0.26879345  0.69933034  0.54054022    -0.01190
C927        C  0.28688622  0.68555466  0.57403548     0.03800
C928        C  0.29146305  0.70961990  0.60582241    -0.04070
C929        C  0.28214535  0.74811158  0.60207978    -0.01170
C930        C  0.27443534  0.76344966  0.56614808     0.03800
C931        C  0.25637993  0.67097791  0.51304369     0.38450
C932        C  0.27598970  0.77153396  0.63554305     0.38440
C933        C  0.28711571  0.80237812  0.56114236     0.36860
C934        C  0.29855129  0.64602422  0.57658523     0.36870
N935        N  0.29816889  0.83324630  0.55813668    -0.37950
N936        N  0.30777728  0.61448736  0.57850282    -0.37960
N937        N  0.26885026  0.79002486  0.66190337    -0.37400
N938        N  0.24701268  0.64724026  0.49212423    -0.37400
C939        C  0.11154941  0.74514294  0.50248612    -0.04070
C940        C  0.13319313  0.72700033  0.53050070    -0.01190
C941        C  0.17359235  0.72734498  0.52947120     0.03800
C942        C  0.19393236  0.74717159  0.49959919    -0.04070
C943        C  0.17020563  0.76634589  0.47169998    -0.01170
C944        C  0.13014274  0.76724998  0.47498172     0.03800
C945        C  0.11398816  0.71388090  0.56463761     0.38450
C946        C  0.18610573  0.78504917  0.43829477     0.38440
C947        C  0.10808077  0.79256829  0.45064621     0.36860
C948        C  0.19132649  0.70981376  0.56238500     0.36870
N949        N  0.09077958  0.81302170  0.43142045    -0.37950
N950        N  0.20188307  0.69558206  0.59022271    -0.37960
N951        N  0.19716343  0.79976527  0.41096062    -0.37400
N952        N  0.10100479  0.70492927  0.59348115    -0.37400
C953        C  0.23083890  0.11159816  0.49528308    -0.04070
C954        C  0.21712683  0.13025903  0.52763145    -0.01190
C955        C  0.22512769  0.16910108  0.53365341     0.03800
C956        C  0.24333051  0.19224480  0.50484120    -0.04070
C957        C  0.25742631  0.17177177  0.47199708    -0.01170
C958        C  0.24852879  0.13280835  0.46666011     0.03800
C959        C  0.19340843  0.10954298  0.55455341     0.38450
C960        C  0.27821431  0.18903533  0.44081688     0.38440
C961        C  0.24928687  0.11702796  0.42845578     0.36860
C962        C  0.21712081  0.18310590  0.57168046     0.36870
N963        N  0.24742405  0.10715011  0.39704477    -0.37950
N964        N  0.21205748  0.19034514  0.60348025    -0.37960
N965        N  0.29455687  0.20014535  0.41439903    -0.37400
N966        N  0.17421526  0.09328537  0.57583694    -0.37400
C967        C  0.22912435  0.00225284  0.60981881    -0.04070
C968        C  0.21922945  0.97126371  0.63282702    -0.01190
C969        C  0.22287974  0.97310160  0.67299211     0.03800
C970        C  0.24218991  0.00454089  0.69120722    -0.04070
C971        C  0.24750335  0.03760776  0.66726418    -0.01170
C972        C  0.24283119  0.03549356  0.62720092     0.03800
C973        C  0.21039616  0.93501357  0.61528972     0.38450
C974        C  0.26067075  0.07404112  0.68134580     0.38440
C975        C  0.25838240  0.06558161  0.60340632     0.36860
C976        C  0.20316523  0.94323048  0.69346560     0.36870
N977        N  0.27241759  0.08913438  0.58522288    -0.37950
N978        N  0.18582889  0.91910952  0.70769280    -0.37960
N979        N  0.27018470  0.10473723  0.68860345    -0.37400
N980        N  0.20482658  0.90489327  0.60335721    -0.37400
C981        C  0.23691704  0.99642104  0.38010259    -0.04070
C982        C  0.26255964  0.02165995  0.36302769    -0.01190
C983        C  0.26310877  0.02619268  0.32318005     0.03800
C984        C  0.24684557  0.99759883  0.29818736    -0.04070
C985        C  0.22166255  0.97081182  0.31654358    -0.01170
C986        C  0.21548840  0.97190313  0.35670645     0.03800
C987        C  0.29200910  0.04011010  0.38596815     0.38450
C988        C  0.20045116  0.94223099  0.29599237     0.38440
C989        C  0.18952009  0.94508065  0.37456129     0.36860
C990        C  0.28524000  0.05844717  0.31018765     0.36870
N991        N  0.16896629  0.92366149  0.38882734    -0.37950
N992        N  0.30327336  0.08539344  0.30443363    -0.37960
N993        N  0.18183988  0.91931513  0.28134691    -0.37400
N994        N  0.31599753  0.05421411  0.40379325    -0.37400
C995        C  0.23355176  0.88238171  0.49386884    -0.04070
C996        C  0.26042848  0.86330122  0.47098989    -0.01190
C997        C  0.26127017  0.82297975  0.46953217     0.03800
C998        C  0.24060199  0.80063186  0.49729329    -0.04070
C999        C  0.21581386  0.82217365  0.52236573    -0.01170
C1000       C  0.20842221  0.86088026  0.51600653     0.03800
C1001       C  0.28497523  0.88534573  0.44591531     0.38450
C1002       C  0.19835490  0.80602362  0.55625934     0.38440
C1003       C  0.17406029  0.87797184  0.53162172     0.36860
C1004       C  0.28095656  0.80725758  0.43679547     0.36870
N1005       N  0.14619433  0.89118756  0.54344259    -0.37950
N1006       N  0.29646084  0.79725913  0.40938552    -0.37960
N1007       N  0.18455138  0.79500574  0.58410174    -0.37400
N1008       N  0.30455307  0.90284645  0.42603080    -0.37400
C1009       C  0.45672065  0.26208053  0.26755772    -0.04070
C1010       C  0.45925684  0.29473951  0.29310565    -0.01190
C1011       C  0.42671761  0.30920391  0.31239601     0.03800
C1012       C  0.39007533  0.29616698  0.30358189    -0.04070
C1013       C  0.38568213  0.26844318  0.27534844    -0.01170
C1014       C  0.41792909  0.25170631  0.25731828     0.03800
C1015       C  0.49268760  0.31889583  0.29657035     0.38450
C1016       C  0.34711426  0.25681303  0.26511453     0.38440
C1017       C  0.40864872  0.22313446  0.22908573     0.36860
C1018       C  0.43065381  0.33938131  0.34064325     0.36870
N1019       N  0.39636021  0.20151025  0.20738433    -0.37950
N1020       N  0.43372811  0.36343393  0.36301533    -0.37960
N1021       N  0.31636757  0.24774417  0.25715746    -0.37400
N1022       N  0.51792949  0.33993279  0.29972888    -0.37400
C1023       C  0.60149266  0.29371773  0.29685563    -0.04070
C1024       C  0.57454549  0.27465704  0.31983968    -0.01190
C1025       C  0.54247763  0.25577310  0.30371784     0.03800
C1026       C  0.53273901  0.25901247  0.26380062    -0.04070
C1027       C  0.56125519  0.27765224  0.24064990    -0.01170
C1028       C  0.59458473  0.29434259  0.25707589     0.03800
C1029       C  0.57750603  0.27681074  0.36117200     0.38450
C1030       C  0.56129173  0.27630357  0.19926587     0.38440
C1031       C  0.62240346  0.31119922  0.23154391     0.36860
C1032       C  0.51825580  0.23587339  0.33061340     0.36870
N1033       N  0.64257031  0.32446762  0.20917005    -0.37950
N1034       N  0.50143500  0.22112552  0.35478992    -0.37960
N1035       N  0.56496305  0.27525700  0.16645286    -0.37400
N1036       N  0.57893188  0.27784001  0.39412119    -0.37400
C1037       C  0.39911956  0.70060650  0.29926082    -0.04070
C1038       C  0.41214634  0.73707850  0.31150686    -0.01190
C1039       C  0.43887004  0.75832478  0.28989661     0.03800
C1040       C  0.46414964  0.73971044  0.26332935    -0.04070
C1041       C  0.45871365  0.69927251  0.26048134    -0.01170
C1042       C  0.42518825  0.68112856  0.27481746     0.03800
C1043       C  0.40655402  0.74989052  0.35055946     0.38450
C1044       C  0.48545559  0.67536837  0.23969600     0.38440
C1045       C  0.41990103  0.64170969  0.26418864     0.36860
C1046       C  0.44232208  0.79806833  0.30103040     0.36870
N1047       N  0.41783482  0.61079862  0.25308287    -0.37950
N1048       N  0.44399811  0.82931164  0.31143181    -0.37960
N1049       N  0.50464303  0.65370720  0.22386349    -0.37400
N1050       N  0.40320697  0.76111206  0.38144401    -0.37400
C1051       C  0.53654160  0.73798463  0.26100256    -0.04070
C1052       C  0.56672303  0.72027642  0.23913907    -0.01190
C1053       C  0.60180135  0.71045046  0.25646665     0.03800
C1054       C  0.60431334  0.70549598  0.29623698    -0.04070
C1055       C  0.57194384  0.71409710  0.31828954    -0.01170
C1056       C  0.54024799  0.73319287  0.30187829     0.03800
C1057       C  0.56237964  0.70674074  0.20023486     0.38450
C1058       C  0.57126244  0.70380837  0.35844005     0.38440
C1059       C  0.51473045  0.75092118  0.32908194     0.36860
C1060       C  0.63541520  0.70532789  0.23268658     0.36870
N1061       N  0.49718668  0.76449275  0.35352802    -0.37950
N1062       N  0.66210027  0.70138399  0.21364457    -0.37960
N1063       N  0.57065019  0.69557720  0.39037280    -0.37400
N1064       N  0.56007892  0.69473939  0.16952602    -0.37400
C1065       C  0.49811072  0.19670860  0.25954361    -0.04070
C1066       C  0.53062446  0.17552106  0.24498564    -0.01190
C1067       C  0.53191642  0.13540370  0.24630512     0.03800
C1068       C  0.50205362  0.11478140  0.26240612    -0.04070
C1069       C  0.47297021  0.13421477  0.28194439    -0.01170
C1070       C  0.47135210  0.17464311  0.28179483     0.03800
C1071       C  0.56254165  0.19266809  0.22529147     0.38450
C1072       C  0.44324943  0.11222110  0.30058362     0.38440
C1073       C  0.44284657  0.19139691  0.30655797     0.36860
C1074       C  0.56346466  0.11468417  0.22891736     0.36870
N1075       N  0.42013680  0.20297793  0.32758086    -0.37950
N1076       N  0.58816289  0.09806479  0.21471976    -0.37960
N1077       N  0.41956117  0.09462895  0.31526463    -0.37400
N1078       N  0.59003485  0.20194984  0.20958097    -0.37400
C1079       C  0.70059653  0.99651996  0.25393483    -0.04070
C1080       C  0.67519933  0.99680285  0.28602998    -0.01190
C1081       C  0.63796540  0.00930254  0.28183213     0.03800
C1082       C  0.61887578  0.00230608  0.24737610    -0.04070
C1083       C  0.64118669  0.99105696  0.21536272    -0.01170
C1084       C  0.68190470  0.99031343  0.21797129     0.03800
C1085       C  0.68111116  0.97435502  0.32026980     0.38450
C1086       C  0.62290207  0.98128073  0.17955346     0.38440
C1087       C  0.70370362  0.98443385  0.18330026     0.36860
C1088       C  0.61953979  0.02704636  0.31446338     0.36870
N1089       N  0.72052632  0.97984886  0.15526962    -0.37950
N1090       N  0.60510602  0.04140577  0.34045069    -0.37960
N1091       N  0.60848394  0.97338822  0.15089427    -0.37400
N1092       N  0.68377660  0.95602834  0.34754235    -0.37400
C1093       C  0.38809233  0.99363153  0.25154391    -0.04070
C1094       C  0.36664265  0.99156460  0.21720925    -0.01190
C1095       C  0.32615525  0.98975463  0.21791329     0.03800
C1096       C  0.30543681  0.99097655  0.25316023    -0.04070
C1097       C  0.32849514  0.98332921  0.28655276    -0.01170
C1098       C  0.36831168  0.98871203  0.28627060     0.03800
C1099       C  0.38556352  0.99264505  0.18027645     0.38450
C1100       C  0.31434229  0.96315067  0.31992411     0.38440
C1101       C  0.38851152  0.98700128  0.32260068     0.36860
C1102       C  0.30740972  0.98682574  0.18120038     0.36870
N1103       N  0.40409905  0.98525848  0.35167796    -0.37950
N1104       N  0.29635873  0.98340062  0.15026710    -0.37960
N1105       N  0.30503616  0.94609946  0.34654906    -0.37400
N1106       N  0.40014508  0.99362803  0.15068349    -0.37400
C1107       C  0.50096668  0.80484696  0.24836253    -0.04070
C1108       C  0.53162731  0.82629199  0.26603566    -0.01190
C1109       C  0.53323903  0.86648746  0.26312881     0.03800
C1110       C  0.50540325  0.88682603  0.24288455    -0.04070
C1111       C  0.47504404  0.86735897  0.22600059    -0.01170
C1112       C  0.47197349  0.82747220  0.22945240     0.03800
C1113       C  0.56419576  0.80950239  0.28514295     0.38450
C1114       C  0.44540305  0.88892347  0.20652127     0.38440
C1115       C  0.43634494  0.81131701  0.21587710     0.36860
C1116       C  0.56517578  0.88743618  0.27968952     0.36870
N1117       N  0.40638701  0.80189971  0.20562823    -0.37950
N1118       N  0.59055084  0.90410014  0.29269139    -0.37960
N1119       N  0.42173277  0.90590702  0.19103857    -0.37400
N1120       N  0.59168212  0.79909014  0.30026438    -0.37400
C1121       C  0.39024069  0.29581589  0.71238072    -0.04070
C1122       C  0.42142053  0.28462020  0.68971101    -0.01190
C1123       C  0.45262202  0.26511115  0.70582965     0.03800
C1124       C  0.45737792  0.26284896  0.74658550    -0.04070
C1125       C  0.42399249  0.27301509  0.76905463    -0.01170
C1126       C  0.39111999  0.28889499  0.75163663     0.03800
C1127       C  0.42344388  0.29669977  0.65017671     0.38450
C1128       C  0.41900710  0.26333145  0.80893752     0.38440
C1129       C  0.35696407  0.29666842  0.77400784     0.36860
C1130       C  0.48022578  0.24825884  0.67972691     0.36870
N1131       N  0.32977062  0.30264442  0.79176073    -0.37950
N1132       N  0.50199494  0.23487202  0.65881269    -0.37960
N1133       N  0.41282100  0.25638062  0.84060448    -0.37400
N1134       N  0.42562510  0.30715887  0.61898525    -0.37400
C1135       C  0.59894304  0.29532172  0.70530507    -0.04070
C1136       C  0.60259399  0.27270177  0.73804718    -0.01190
C1137       C  0.57053411  0.26560212  0.76142374     0.03800
C1138       C  0.53248467  0.27112038  0.74755731    -0.04070
C1139       C  0.53059797  0.30127278  0.71955513    -0.01170
C1140       C  0.56286765  0.31064087  0.69691136     0.03800
C1141       C  0.64018599  0.26019362  0.75023234     0.38450
C1142       C  0.49923220  0.32820331  0.71776554     0.38440
C1143       C  0.55938742  0.33793637  0.66605136     0.36860
C1144       C  0.57833835  0.26899325  0.80189049     0.36870
N1145       N  0.55668783  0.35964494  0.64144616    -0.37950
N1146       N  0.58613949  0.27264638  0.83380077    -0.37960
N1147       N  0.47514430  0.35068090  0.71565445    -0.37400
N1148       N  0.67016307  0.25027495  0.75992543    -0.37400
C1149       C  0.48451081  0.25247940  0.12092159    -0.04070
C1150       C  0.47713897  0.21701630  0.13788974    -0.01190
C1151       C  0.47962666  0.21219952  0.17783033     0.03800
C1152       C  0.48628280  0.24424982  0.20324532    -0.04070
C1153       C  0.48226254  0.28087474  0.18521522    -0.01170
C1154       C  0.48377706  0.28481610  0.14481410     0.03800
C1155       C  0.46341357  0.18542250  0.11439256     0.38450
C1156       C  0.47957212  0.31587221  0.20689094     0.38440
C1157       C  0.48567065  0.32263332  0.12831853     0.36860
C1158       C  0.46953266  0.17407702  0.19007990     0.36870
N1159       N  0.48726297  0.35288342  0.11549188    -0.37950
N1160       N  0.45946737  0.14331381  0.19602042    -0.37960
N1161       N  0.47681685  0.34553371  0.22096990    -0.37400
N1162       N  0.45214473  0.16037891  0.09609478    -0.37400
C1163       C  0.61136607  0.25324134  0.00509778    -0.04070
C1164       C  0.63255359  0.22776492  0.02740726    -0.01190
C1165       C  0.67228812  0.22452998  0.02244834     0.03800
C1166       C  0.69265486  0.25110827  0.99891796    -0.04070
C1167       C  0.66977512  0.27278361  0.97268256    -0.01170
C1168       C  0.62970976  0.27410912  0.97635637     0.03800
C1169       C  0.61339667  0.20472493  0.05602442     0.38450
C1170       C  0.68606635  0.29319725  0.94074449     0.38440
C1171       C  0.60724464  0.29692596  0.95004264     0.36860
C1172       C  0.68972840  0.19094605  0.03891139     0.36870
N1173       N  0.58965324  0.31522303  0.92900919    -0.37950
N1174       N  0.70108098  0.16334010  0.05283583    -0.37960
N1175       N  0.69594535  0.30978356  0.91406652    -0.37400
N1176       N  0.59822170  0.18638356  0.07878551    -0.37400
C1177       C  0.38331800  0.25345252  0.99996709    -0.04070
C1178       C  0.36445507  0.23279215  0.97137677    -0.01190
C1179       C  0.32409210  0.23196500  0.96960054     0.03800
C1180       C  0.30131171  0.25111587  0.99817064    -0.04070
C1181       C  0.32231034  0.27203305  0.02717403    -0.01170
C1182       C  0.36241062  0.27322079  0.02747275     0.03800
C1183       C  0.38712111  0.21368974  0.94224092     0.38450
C1184       C  0.30376081  0.29037626  0.05947814     0.38440
C1185       C  0.38251799  0.29340132  0.05779635     0.36860
C1186       C  0.30848665  0.21352905  0.93600823     0.36870
N1187       N  0.39841149  0.30935392  0.08195755    -0.37950
N1188       N  0.29830358  0.19902447  0.90810163    -0.37960
N1189       N  0.29119106  0.30480939  0.08639017    -0.37400
N1190       N  0.40510262  0.19857837  0.91904352    -0.37400
C1191       C  0.50129398  0.25209620  0.89059422    -0.04070
C1192       C  0.50189773  0.28573069  0.86843758    -0.01190
C1193       C  0.49957907  0.28402161  0.82810283     0.03800
C1194       C  0.49599801  0.24841398  0.80835364    -0.04070
C1195       C  0.48948066  0.21581827  0.83200545    -0.01170
C1196       C  0.49717791  0.21688985  0.87129834     0.03800
C1197       C  0.50550357  0.32281670  0.88655375     0.38450
C1198       C  0.46830577  0.18263369  0.81914780     0.38440
C1199       C  0.49950966  0.18068773  0.89126330     0.36860
C1200       C  0.49929932  0.32008049  0.80823452     0.36870
N1201       N  0.50131406  0.15166201  0.90666129    -0.37950
N1202       N  0.49932064  0.35060769  0.79604695    -0.37960
N1203       N  0.45105876  0.15559687  0.81148171    -0.37400
N1204       N  0.50834263  0.35253799  0.90052530    -0.37400
C1205       C  0.50810156  0.12218725  0.72917318    -0.04070
C1206       C  0.53834808  0.14153476  0.74640578    -0.01190
C1207       C  0.53409815  0.17962675  0.75900126     0.03800
C1208       C  0.50071559  0.20210969  0.74968392    -0.04070
C1209       C  0.46994529  0.18025428  0.73175236    -0.01170
C1210       C  0.47516194  0.14215083  0.71944940     0.03800
C1211       C  0.57348317  0.12065525  0.75404671     0.38450
C1212       C  0.42992862  0.19117435  0.73335615     0.38440
C1213       C  0.44450438  0.12167555  0.70017959     0.36860
C1214       C  0.55945706  0.18882903  0.79020624     0.36870
N1215       N  0.42018280  0.10534290  0.68493719    -0.37950
N1216       N  0.57997645  0.19091805  0.81604609    -0.37960
N1217       N  0.39751985  0.19764415  0.73422306    -0.37400
N1218       N  0.60146970  0.10428096  0.76020798    -0.37400
C1219       C  0.62138401  0.00752991  0.73813105    -0.04070
C1220       C  0.64176624  0.01362444  0.77251155    -0.01190
C1221       C  0.68191330  0.00921637  0.77404904     0.03800
C1222       C  0.70386380  0.00040567  0.74061120    -0.04070
C1223       C  0.68207635  0.99040818  0.70739302    -0.01170
C1224       C  0.64247208  0.99756628  0.70518649     0.03800
C1225       C  0.62189676  0.02519754  0.80712868     0.38450
C1226       C  0.69601478  0.96338453  0.67945931     0.38440
C1227       C  0.62372528  0.99247452  0.66845216     0.36860
C1228       C  0.69869172  0.01066416  0.81177415     0.36870
N1229       N  0.60924884  0.98840209  0.63902967    -0.37950
N1230       N  0.70762120  0.01200802  0.84352176    -0.37960
N1231       N  0.70348150  0.94035639  0.65702819    -0.37400
N1232       N  0.60650155  0.03435556  0.83487115    -0.37400
C1233       C  0.30529001  0.00500729  0.73311566    -0.04070
C1234       C  0.32866435  0.00383625  0.69899255    -0.01190
C1235       C  0.36905389  0.00679052  0.70051736     0.03800
C1236       C  0.38892772  0.00720841  0.73564852    -0.04070
C1237       C  0.36700334  0.00513268  0.76949415    -0.01170
C1238       C  0.32641601  0.00360743  0.76838036     0.03800
C1239       C  0.31474731  0.99231401  0.66171717     0.38450
C1240       C  0.38582352  0.00517297  0.80653056     0.38440
C1241       C  0.30750283  0.00285669  0.80512426     0.36860
C1242       C  0.39008868  0.00706057  0.66456695     0.36870
N1243       N  0.29626803  0.00270169  0.83613321    -0.37950
N1244       N  0.40628109  0.00646540  0.63580246    -0.37960
N1245       N  0.40033335  0.00544923  0.83621194    -0.37400
N1246       N  0.30795470  0.98134753  0.63130644    -0.37400
C1247       C  0.45736460  0.74932562  0.74484284    -0.04070
C1248       C  0.42851853  0.77304809  0.72742741    -0.01190
C1249       C  0.39442892  0.75732862  0.71199882     0.03800
C1250       C  0.38687867  0.71794725  0.71347270    -0.04070
C1251       C  0.41383743  0.69437200  0.73160645    -0.01170
C1252       C  0.44695298  0.70974757  0.74902903     0.03800
C1253       C  0.42927439  0.81429327  0.72857571     0.38450
C1254       C  0.40945738  0.65321720  0.72977432     0.38440
C1255       C  0.47100766  0.68246278  0.76865236     0.36860
C1256       C  0.36666953  0.78291086  0.69500297     0.36870
N1257       N  0.48756410  0.65810962  0.78341876    -0.37950
N1258       N  0.34627493  0.80479964  0.68125205    -0.37960
N1259       N  0.40641267  0.62047079  0.72856942    -0.37400
N1260       N  0.42660018  0.84710866  0.72944870    -0.37400
C1261       C  0.53243350  0.74393693  0.73760079    -0.04070
C1262       C  0.57180614  0.75394036  0.74482925    -0.01190
C1263       C  0.60221478  0.73195241  0.72974006     0.03800
C1264       C  0.59485670  0.69938483  0.70774069    -0.04070
C1265       C  0.55735224  0.69141357  0.69673703    -0.01170
C1266       C  0.52713873  0.71560711  0.70796629     0.03800
C1267       C  0.58303618  0.78626243  0.76785477     0.38450
C1268       C  0.55020867  0.65934831  0.67143605     0.38440
C1269       C  0.49391184  0.71425046  0.68319558     0.36860
C1270       C  0.64168060  0.74220919  0.73776225     0.36870
N1271       N  0.46849212  0.71263279  0.66210234    -0.37950
N1272       N  0.67309139  0.75034216  0.74396422    -0.37960
N1273       N  0.54460964  0.63376778  0.65138119    -0.37400
N1274       N  0.59543720  0.81174872  0.78473027    -0.37400
C1275       C  0.50474005  0.80909429  0.75640912    -0.04070
C1276       C  0.50879273  0.82669704  0.71959835    -0.01190
C1277       C  0.50982653  0.86702842  0.71524598     0.03800
C1278       C  0.50687336  0.89175957  0.74719922    -0.04070
C1279       C  0.50698203  0.87475291  0.78381073    -0.01170
C1280       C  0.50964146  0.83481896  0.78824893     0.03800
C1281       C  0.51007394  0.80440576  0.68480226     0.38450
C1282       C  0.50607593  0.89801362  0.81825485     0.38440
C1283       C  0.52467044  0.82297597  0.82501125     0.36860
C1284       C  0.51229451  0.88257828  0.67695000     0.36870
N1285       N  0.53797090  0.81606353  0.85442446    -0.37950
N1286       N  0.51407660  0.89457486  0.64628947    -0.37960
N1287       N  0.50557219  0.91598394  0.84595804    -0.37400
N1288       N  0.51170925  0.78941345  0.65544033    -0.37400
C1289       C  0.50065702  0.75644526  0.11473497    -0.04070
C1290       C  0.52900758  0.77563283  0.13504359    -0.01190
C1291       C  0.52882699  0.77579288  0.17528809     0.03800
C1292       C  0.49925997  0.75663044  0.19706397    -0.04070
C1293       C  0.46883798  0.73975530  0.17451273    -0.01170
C1294       C  0.47078500  0.73866534  0.13420596     0.03800
C1295       C  0.56004015  0.79359257  0.11414270     0.38450
C1296       C  0.43276588  0.72650890  0.18971079     0.38440
C1297       C  0.44027078  0.72095262  0.11203785     0.36860
C1298       C  0.56195882  0.79341307  0.19297712     0.36870
N1299       N  0.41600010  0.70704893  0.09445300    -0.37950
N1300       N  0.58971653  0.80717245  0.20444809    -0.37960
N1301       N  0.40277622  0.71626877  0.19903675    -0.37400
N1302       N  0.58471599  0.80773985  0.09747962    -0.37400
C1303       C  0.49762301  0.74510606  0.88652329    -0.04070
C1304       C  0.46615999  0.76151591  0.86843732    -0.01190
C1305       C  0.46560669  0.76588147  0.82843829     0.03800
C1306       C  0.49672408  0.75236395  0.80477207    -0.04070
C1307       C  0.52505624  0.72945322  0.82431708    -0.01170
C1308       C  0.52627134  0.72794916  0.86468573     0.03800
C1309       C  0.43441074  0.77516290  0.89158561     0.38450
C1310       C  0.55143527  0.70391325  0.80543877     0.38440
C1311       C  0.55794069  0.70944866  0.88415845     0.36860
C1312       C  0.43345301  0.78735333  0.81387308     0.36870
N1313       N  0.58315720  0.69485723  0.89968392    -0.37950
N1314       N  0.40634536  0.80451881  0.80611459    -0.37960
N1315       N  0.57243158  0.68172302  0.79292753    -0.37400
N1316       N  0.40911065  0.78602307  0.90981162    -0.37400
C1317       C  0.38690416  0.75264980  0.00054808    -0.04070
C1318       C  0.36865839  0.72097258  0.98467949    -0.01190
C1319       C  0.33226276  0.71226593  0.99715739     0.03800
C1320       C  0.30563263  0.74204554  0.00459767    -0.04070
C1321       C  0.32359681  0.77475596  0.02211428    -0.01170
C1322       C  0.36422720  0.77913660  0.02091751     0.03800
C1323       C  0.38832279  0.69379873  0.96041722     0.38450
C1324       C  0.30217838  0.80387308  0.04229422     0.38440
C1325       C  0.38242908  0.81043807  0.04087599     0.36860
C1326       C  0.33110257  0.67659880  0.01777278     0.36870
N1327       N  0.39692378  0.83536323  0.05689629    -0.37950
N1328       N  0.33240448  0.64768596  0.03345935    -0.37960
N1329       N  0.28634942  0.82795223  0.05837379    -0.37400
N1330       N  0.40380297  0.67216921  0.94089037    -0.37400
C1331       C  0.61679294  0.74785093  0.00054103    -0.04070
C1332       C  0.63635125  0.72633057  0.02787388    -0.01190
C1333       C  0.67666707  0.72462338  0.02791635     0.03800
C1334       C  0.69933404  0.74462049  0.99982883    -0.04070
C1335       C  0.67774644  0.76476770  0.97080492    -0.01170
C1336       C  0.63739825  0.76716991  0.97243188     0.03800
C1337       C  0.61471957  0.70733569  0.05770734     0.38450
C1338       C  0.69400637  0.78027954  0.93615513     0.38440
C1339       C  0.61641609  0.78794849  0.94319610     0.36860
C1340       C  0.69377969  0.70412999  0.05958122     0.36870
N1341       N  0.59981479  0.80439568  0.91992940    -0.37950
N1342       N  0.70512288  0.68784641  0.08591524    -0.37960
N1343       N  0.70427523  0.79260744  0.90733647    -0.37400
N1344       N  0.59750548  0.69233562  0.08146201    -0.37400
C1345       C  0.26191606  0.45993021  0.25821339    -0.04070
C1346       C  0.29954897  0.46036032  0.27475133    -0.01190
C1347       C  0.31019522  0.43379481  0.30278625     0.03800
C1348       C  0.29127290  0.39890044  0.30471770    -0.04070
C1349       C  0.25834316  0.39334075  0.28260816    -0.01170
C1350       C  0.24239723  0.42366947  0.26127758     0.03800
C1351       C  0.33219319  0.47319057  0.25317266     0.38450
C1352       C  0.24280538  0.35512921  0.27897554     0.38440
C1353       C  0.20863803  0.41391261  0.23935801     0.36860
C1354       C  0.34475212  0.43974001  0.32500956     0.36870
N1355       N  0.18167031  0.40346005  0.22335958    -0.37950
N1356       N  0.37232553  0.44447982  0.34259380    -0.37960
N1357       N  0.23095691  0.32467806  0.27495313    -0.37400
N1358       N  0.36014028  0.48000423  0.23695824    -0.37400
C1359       C  0.25919977  0.53498154  0.25692661    -0.04070
C1360       C  0.23665849  0.56193336  0.27854942    -0.01190
C1361       C  0.25428006  0.59038884  0.30175480     0.03800
C1362       C  0.29458290  0.59500506  0.30240674    -0.04070
C1363       C  0.31586609  0.56913233  0.28082480    -0.01170
C1364       C  0.29814573  0.54638635  0.25319683     0.03800
C1365       C  0.19611350  0.56767885  0.27197168     0.38450
C1366       C  0.35532358  0.56166765  0.29030778     0.38440
C1367       C  0.31746255  0.54579818  0.21667092     0.36860
C1368       C  0.22973948  0.61329847  0.32589175     0.36870
N1369       N  0.33326223  0.54636054  0.18768612    -0.37950
N1370       N  0.20843689  0.62912722  0.34548507    -0.37960
N1371       N  0.38615617  0.55397938  0.29931583    -0.37400
N1372       N  0.16417027  0.57474085  0.26715091    -0.37400
C1373       C  0.73594775  0.46371239  0.26497777    -0.04070
C1374       C  0.71884871  0.43302556  0.24375958    -0.01190
C1375       C  0.70987247  0.39888089  0.26191673     0.03800
C1376       C  0.70136059  0.39852521  0.30082539    -0.04070
C1377       C  0.71039768  0.43088471  0.32266749    -0.01170
C1378       C  0.73066371  0.46154392  0.30589514     0.03800
C1379       C  0.70326871  0.43638233  0.20557841     0.38450
C1380       C  0.70020335  0.43205844  0.36278901     0.38440
C1381       C  0.74679550  0.48922000  0.33205328     0.36860
C1382       C  0.71436739  0.36357998  0.24111785     0.36870
N1383       N  0.75885366  0.50997733  0.35470767    -0.37950
N1384       N  0.72021575  0.33547294  0.22496565    -0.37960
N1385       N  0.69206284  0.43296434  0.39475764    -0.37400
N1386       N  0.68976004  0.43825938  0.17548422    -0.37400
C1387       C  0.73851629  0.53598007  0.26583323    -0.04070
C1388       C  0.69778915  0.53955368  0.27091346    -0.01190
C1389       C  0.68187528  0.57148183  0.28981585     0.03800
C1390       C  0.70470014  0.60350443  0.29812628    -0.04070
C1391       C  0.74417828  0.60097638  0.29203460    -0.01170
C1392       C  0.76082098  0.56577901  0.28344299     0.03800
C1393       C  0.67103713  0.51193293  0.25555976     0.38450
C1394       C  0.76839644  0.63442270  0.29514425     0.38440
C1395       C  0.79859711  0.56046523  0.29976622     0.36860
C1396       C  0.64182423  0.57116728  0.30053775     0.36870
N1397       N  0.82837707  0.55725694  0.31377493    -0.37950
N1398       N  0.60993077  0.57084176  0.30910668    -0.37960
N1399       N  0.78774387  0.66099797  0.29739430    -0.37400
N1400       N  0.64832027  0.49106690  0.24383829    -0.37400
C1401       C  0.11568551  0.49708512  0.24552507    -0.04070
C1402       C  0.13891332  0.49258035  0.27860263    -0.01190
C1403       C  0.17945996  0.49004033  0.27568255     0.03800
C1404       C  0.19839491  0.49269381  0.23948425    -0.04070
C1405       C  0.17373262  0.48901653  0.20685203    -0.01170
C1406       C  0.13411423  0.49530296  0.20956664     0.03800
C1407       C  0.12187325  0.49237338  0.31630443     0.38450
C1408       C  0.18554243  0.47014076  0.17189638     0.38440
C1409       C  0.11271867  0.49787186  0.17397570     0.36860
C1410       C  0.20161503  0.48693154  0.31063892     0.36870
N1411       N  0.09620011  0.49948710  0.14540635    -0.37950
N1412       N  0.21908984  0.48452333  0.33856901    -0.37960
N1413       N  0.19220043  0.45399239  0.14390392    -0.37400
N1414       N  0.10862772  0.49234620  0.34653441    -0.37400
C1415       C  0.00313065  0.61712883  0.24740905    -0.04070
C1416       C  0.02866561  0.63546255  0.27205958    -0.01190
C1417       C  0.03316982  0.67514351  0.26981419     0.03800
C1418       C  0.00475226  0.69890347  0.25155266    -0.04070
C1419       C  0.97656804  0.67859489  0.22959549    -0.01170
C1420       C  0.98127354  0.63947088  0.22244536     0.03800
C1421       C  0.05438337  0.61319942  0.29589689     0.38450
C1422       C  0.94098340  0.69434562  0.21576436     0.38440
C1423       C  0.96817930  0.62415980  0.18638561     0.36860
C1424       C  0.07071407  0.68869536  0.28054636     0.36870
N1425       N  0.96000447  0.61339390  0.15625705    -0.37950
N1426       N  0.10236155  0.69525278  0.28743056    -0.37960
N1427       N  0.91168720  0.70483077  0.20459776    -0.37400
N1428       N  0.07491331  0.59560897  0.31480592    -0.37400
C1429       C  0.00186766  0.30728346  0.24814592    -0.04070
C1430       C  0.97238760  0.32812324  0.22808447    -0.01190
C1431       C  0.97154063  0.36839110  0.22871882     0.03800
C1432       C  0.99909908  0.38910161  0.24892382    -0.04070
C1433       C  0.02831395  0.37017507  0.26817749    -0.01170
C1434       C  0.03023942  0.33024611  0.26773018     0.03800
C1435       C  0.94029090  0.31068026  0.20871782     0.38450
C1436       C  0.05791509  0.39220385  0.28737266     0.38440
C1437       C  0.06414189  0.31423768  0.28548385     0.36860
C1438       C  0.94052912  0.38900030  0.21021321     0.36870
N1439       N  0.09256574  0.30445655  0.29920105    -0.37950
N1440       N  0.91581318  0.40539160  0.19572311    -0.37960
N1441       N  0.08156586  0.40946245  0.30261875    -0.37400
N1442       N  0.91327438  0.29953123  0.19325813    -0.37400
C1443       C  0.88431834  0.50164541  0.24995968    -0.04070
C1444       C  0.86489825  0.47435814  0.27174537    -0.01190
C1445       C  0.82443005  0.47198492  0.27091888     0.03800
C1446       C  0.80191696  0.49953144  0.25008850    -0.04070
C1447       C  0.82328446  0.52771389  0.22905713    -0.01170
C1448       C  0.86334158  0.52715436  0.22771500     0.03800
C1449       C  0.88708380  0.44654630  0.29307384     0.38450
C1450       C  0.80511649  0.55989869  0.21022617     0.38440
C1451       C  0.88277930  0.55388437  0.20315180     0.36860
C1452       C  0.80860255  0.43884526  0.28955850     0.36870
N1453       N  0.89640153  0.57537687  0.18243775    -0.37950
N1454       N  0.79848700  0.41123234  0.30436160    -0.37960
N1455       N  0.79295481  0.58667997  0.19539971    -0.37400
N1456       N  0.90470110  0.42434067  0.30990171    -0.37400
C1457       C  0.00339656  0.69889505  0.75651268    -0.04070
C1458       C  0.96979315  0.67687659  0.74705951    -0.01190
C1459       C  0.96954510  0.63697072  0.74969075     0.03800
C1460       C  0.00325872  0.61705428  0.75594868    -0.04070
C1461       C  0.03590426  0.63692578  0.76772584    -0.01170
C1462       C  0.03563329  0.67726593  0.77041475     0.03800
C1463       C  0.93304261  0.69392301  0.73881582     0.38450
C1464       C  0.07021660  0.61544321  0.77676836     0.38440
C1465       C  0.07012410  0.69422924  0.78556150     0.36860
C1466       C  0.93351997  0.61654488  0.75065887     0.36870
N1467       N  0.09876109  0.70523467  0.79786553    -0.37950
N1468       N  0.90434553  0.60150902  0.75357626    -0.37960
N1469       N  0.09751675  0.59828886  0.78381671    -0.37400
N1470       N  0.90177814  0.70353754  0.73431439    -0.37400
C1471       C  0.00759592  0.38758456  0.74789025    -0.04070
C1472       C  0.01825215  0.36957503  0.71349978    -0.01190
C1473       C  0.02080047  0.32971350  0.71133304     0.03800
C1474       C  0.00677326  0.30587834  0.74158048    -0.04070
C1475       C  0.00486015  0.32408510  0.77806428    -0.01170
C1476       C  0.00422887  0.36444680  0.78103481     0.03800
C1477       C  0.03062964  0.39176317  0.68069825     0.38450
C1478       C  0.00150920  0.30155819  0.81264855     0.38440
C1479       C  0.99822549  0.38140008  0.81831743     0.36860
C1480       C  0.04654656  0.31544633  0.68214246     0.36870
N1481       N  0.99336797  0.39460264  0.84819265    -0.37950
N1482       N  0.06848728  0.30654185  0.65914903    -0.37960
N1483       N  0.99876139  0.28375400  0.84022845    -0.37400
N1484       N  0.04082953  0.40904697  0.65457178    -0.37400
C1485       C  0.70384935  0.39239325  0.70502511    -0.04070
C1486       C  0.74373252  0.39468877  0.70887751    -0.01190
C1487       C  0.76130588  0.42910215  0.72004172     0.03800
C1488       C  0.73983940  0.45853342  0.73947087    -0.04070
C1489       C  0.69885256  0.45463021  0.73671169    -0.01170
C1490       C  0.68179524  0.42380049  0.71692378     0.03800
C1491       C  0.76735377  0.36154801  0.70109932     0.38450
C1492       C  0.67277647  0.48061940  0.75562329     0.38440
C1493       C  0.64110624  0.42474870  0.70871217     0.36860
C1494       C  0.79967387  0.43408112  0.70527380     0.36870
N1495       N  0.60873036  0.42561466  0.70214849    -0.37950
N1496       N  0.82989027  0.43688447  0.69220900    -0.37960
N1497       N  0.65011233  0.49975165  0.77009407    -0.37400
N1498       N  0.78626094  0.33521799  0.69505724    -0.37400
C1499       C  0.73545310  0.53100246  0.74157349    -0.04070
C1500       C  0.71599039  0.56008991  0.76355507    -0.01190
C1501       C  0.70127529  0.59313396  0.74595742     0.03800
C1502       C  0.69419553  0.59392758  0.70647941    -0.04070
C1503       C  0.70652134  0.56262199  0.68446739    -0.01170
C1504       C  0.72922023  0.53338381  0.70085811     0.03800
C1505       C  0.70428383  0.55556574  0.80297329     0.38450
C1506       C  0.69579994  0.56022220  0.64447631     0.38440
C1507       C  0.74705651  0.50710956  0.67428935     0.36860
C1508       C  0.69344986  0.62655416  0.76920524     0.36870
N1509       N  0.76064014  0.48752310  0.65146401    -0.37950
N1510       N  0.68743730  0.65315141  0.78776126    -0.37960
N1511       N  0.68726695  0.55825692  0.61263362    -0.37400
N1512       N  0.69344325  0.55297330  0.83404836    -0.37400
C1513       C  0.80374211  0.49665933  0.75336279    -0.04070
C1514       C  0.82768241  0.46997248  0.77395291    -0.01190
C1515       C  0.86789613  0.47343069  0.77475376     0.03800
C1516       C  0.88654314  0.49960645  0.75111567    -0.04070
C1517       C  0.86431315  0.52223030  0.72648860    -0.01170
C1518       C  0.82409906  0.52428823  0.73073410     0.03800
C1519       C  0.81223118  0.43661740  0.79283743     0.38450
C1520       C  0.88278051  0.54432885  0.69672717     0.38440
C1521       C  0.80672232  0.55782772  0.71422869     0.36860
C1522       C  0.89042017  0.44743885  0.79791486     0.36870
N1523       N  0.79526099  0.58580514  0.70112366    -0.37950
N1524       N  0.90820712  0.42669360  0.81635205    -0.37960
N1525       N  0.89726617  0.56177479  0.67282754    -0.37400
N1526       N  0.80235453  0.40893966  0.80763422    -0.37400
C1527       C  0.75604100  0.49933557  0.11752719    -0.04070
C1528       C  0.77581125  0.47168205  0.13824524    -0.01190
C1529       C  0.77309030  0.47032643  0.17837785     0.03800
C1530       C  0.75188242  0.49859668  0.19994264    -0.04070
C1531       C  0.73195186  0.52680455  0.17732464    -0.01170
C1532       C  0.73366821  0.52621631  0.13688818     0.03800
C1533       C  0.79824368  0.44331976  0.11786009     0.38450
C1534       C  0.71196633  0.55932108  0.19300530     0.38440
C1535       C  0.71403104  0.55530409  0.11469353     0.36860
C1536       C  0.79132956  0.43784777  0.19643958     0.36870
N1537       N  0.69856597  0.57844261  0.09704330    -0.37950
N1538       N  0.80577276  0.41091542  0.20873407    -0.37960
N1539       N  0.69609153  0.58665129  0.20248084    -0.37400
N1540       N  0.81607232  0.42075566  0.10168201    -0.37400
C1541       C  0.75874962  0.49516275  0.88784585    -0.04070
C1542       C  0.73870379  0.46655854  0.86837477    -0.01190
C1543       C  0.73756065  0.46549996  0.82793475     0.03800
C1544       C  0.75539346  0.49501252  0.80532195    -0.04070
C1545       C  0.77555546  0.52406811  0.82679634    -0.01170
C1546       C  0.77731772  0.52359527  0.86707600     0.03800
C1547       C  0.72069275  0.43645720  0.89049288     0.38450
C1548       C  0.79290985  0.55680017  0.80841990     0.38440
C1549       C  0.79684922  0.55395292  0.88753700     0.36860
C1550       C  0.72073702  0.43124227  0.81218772     0.36870
N1551       N  0.81228162  0.57814505  0.90381670    -0.37950
N1552       N  0.70760061  0.40268232  0.80220609    -0.37960
N1553       N  0.80671937  0.58385830  0.79576668    -0.37400
N1554       N  0.70645980  0.41251818  0.90803883    -0.37400
C1555       C  0.75445880  0.61231564  0.00081015    -0.04070
C1556       C  0.77347995  0.63328865  0.02905805    -0.01190
C1557       C  0.77136923  0.67360776  0.03008890     0.03800
C1558       C  0.75088863  0.69475823  0.00100386    -0.04070
C1559       C  0.73151880  0.67171403  0.97258701    -0.01170
C1560       C  0.73345521  0.63151228  0.97285136     0.03800
C1561       C  0.79352423  0.61270991  0.05908459     0.38450
C1562       C  0.71101180  0.68827339  0.94062966     0.38440
C1563       C  0.71491984  0.60954421  0.94286183     0.36860
C1564       C  0.78777045  0.69051075  0.06410461     0.36870
N1565       N  0.70028568  0.59205462  0.91897947    -0.37950
N1566       N  0.80085476  0.70142968  0.09243658    -0.37960
N1567       N  0.69472459  0.69900827  0.91400503    -0.37400
N1568       N  0.80926091  0.59635939  0.08302137    -0.37400
C1569       C  0.76239311  0.38307905  0.00672279    -0.04070
C1570       C  0.77650709  0.36214704  0.97580092    -0.01190
C1571       C  0.76764266  0.32285245  0.97160277     0.03800
C1572       C  0.74532875  0.30252395  0.00020095    -0.04070
C1573       C  0.72717675  0.32746034  0.02737864    -0.01170
C1574       C  0.74060646  0.36450984  0.03426552     0.03800
C1575       C  0.79799926  0.38212180  0.94646792     0.38450
C1576       C  0.68700336  0.32410839  0.03641694     0.38440
C1577       C  0.72711549  0.38550077  0.06744025     0.36860
C1578       C  0.77590821  0.30800735  0.93382409     0.36870
N1579       N  0.71619609  0.40205285  0.09382305    -0.37950
N1580       N  0.78265404  0.29843739  0.90292163    -0.37960
N1581       N  0.65472117  0.32460696  0.04350460    -0.37400
N1582       N  0.81490494  0.39802838  0.92308399    -0.37400
C1583       C  0.26608737  0.46971272  0.73697311    -0.04070
C1584       C  0.24750023  0.44491954  0.71031944    -0.01190
C1585       C  0.26880289  0.42258139  0.68489287     0.03800
C1586       C  0.30642241  0.41139102  0.69371930    -0.04070
C1587       C  0.32585404  0.43374138  0.72120870    -0.01170
C1588       C  0.30639225  0.46237883  0.74242963     0.03800
C1589       C  0.20705055  0.43664032  0.71024772     0.38450
C1590       C  0.36722342  0.43133357  0.72389900     0.38440
C1591       C  0.32945034  0.48416283  0.76901803     0.36860
C1592       C  0.25620841  0.42379245  0.64567539     0.36870
N1593       N  0.34982307  0.49955616  0.78996616    -0.37950
N1594       N  0.24653485  0.42738408  0.61430415    -0.37960
N1595       N  0.40013359  0.42948954  0.72629147    -0.37400
N1596       N  0.17514114  0.42809337  0.70957677    -0.37400
C1597       C  0.25897520  0.54465421  0.74048055    -0.04070
C1598       C  0.24128926  0.57999702  0.75252256    -0.01190
C1599       C  0.25367817  0.61573604  0.73839988     0.03800
C1600       C  0.28505416  0.61810657  0.71397671    -0.04070
C1601       C  0.30224842  0.58470953  0.70079851    -0.01170
C1602       C  0.28737499  0.54873838  0.71065804     0.03800
C1603       C  0.21086163  0.58152504  0.78039752     0.38450
C1604       C  0.33452105  0.58760552  0.67470566     0.38440
C1605       C  0.29855873  0.51884632  0.68445461     0.36860
C1606       C  0.23419702  0.65064073  0.74910885     0.36870
N1607       N  0.30880958  0.49740092  0.66155626    -0.37950
N1608       N  0.21863074  0.67854175  0.75718344    -0.37960
N1609       N  0.36009058  0.58995487  0.65397478    -0.37400
N1610       N  0.18660564  0.58612655  0.80228686    -0.37400
C1611       C  0.11759483  0.49966019  0.74686922    -0.04070
C1612       C  0.14003249  0.51481432  0.71697547    -0.01190
C1613       C  0.18065493  0.51410469  0.71930869     0.03800
C1614       C  0.19975534  0.50389581  0.75428372    -0.04070
C1615       C  0.17441932  0.49466975  0.78535443    -0.01170
C1616       C  0.13661807  0.48438404  0.77840875     0.03800
C1617       C  0.12177494  0.53075631  0.68347056     0.38450
C1618       C  0.17945797  0.50743725  0.82432823     0.38440
C1619       C  0.11684298  0.46082890  0.80615352     0.36860
C1620       C  0.20172064  0.52332821  0.68497115     0.36870
N1621       N  0.10127376  0.44195532  0.82820039    -0.37950
N1622       N  0.21705889  0.53066502  0.65671870    -0.37960
N1623       N  0.17922613  0.51817792  0.85555536    -0.37400
N1624       N  0.10744061  0.54355587  0.65665514    -0.37400
C1625       C  0.26262271  0.49995643  0.11142824    -0.04070
C1626       C  0.25028615  0.53209095  0.13115802    -0.01190
C1627       C  0.24499935  0.53094961  0.17091023     0.03800
C1628       C  0.25584978  0.49803573  0.19302516    -0.04070
C1629       C  0.27431698  0.46753661  0.17202217    -0.01170
C1630       C  0.27673834  0.46870241  0.13167371     0.03800
C1631       C  0.24504076  0.56750981  0.11063946     0.38450
C1632       C  0.28899491  0.43299764  0.18903800     0.38440
C1633       C  0.29212433  0.43654601  0.11039038     0.36860
C1634       C  0.22687846  0.56428867  0.18720946     0.36870
N1635       N  0.30431772  0.41098707  0.09348022    -0.37950
N1636       N  0.21278035  0.59256929  0.19656275    -0.37960
N1637       N  0.30153972  0.40472394  0.20040510    -0.37400
N1638       N  0.24213118  0.59658742  0.09563783    -0.37400
C1639       C  0.25208763  0.69259414  0.99170824    -0.04070
C1640       C  0.27168256  0.67059558  0.96306010    -0.01190
C1641       C  0.27620844  0.63112840  0.96782653     0.03800
C1642       C  0.25183372  0.61113296  0.99247780    -0.04070
C1643       C  0.22302555  0.63166490  0.01192729    -0.01170
C1644       C  0.22408498  0.67192137  0.01335304     0.03800
C1645       C  0.29083882  0.68816365  0.93073631     0.38450
C1646       C  0.19173709  0.61168900  0.03033541     0.38440
C1647       C  0.19243892  0.69060322  0.03258127     0.36860
C1648       C  0.30751917  0.61190575  0.94854745     0.36870
N1649       N  0.16659964  0.70443884  0.04782505    -0.37950
N1650       N  0.33272018  0.59687503  0.93340681    -0.37960
N1651       N  0.16655711  0.59607532  0.04480694    -0.37400
N1652       N  0.30610726  0.70177077  0.90488663    -0.37400
C1653       C  0.25651501  0.38178216  0.99947199    -0.04070
C1654       C  0.27658112  0.36095096  0.97200057    -0.01190
C1655       C  0.27182599  0.32118803  0.96901414     0.03800
C1656       C  0.25054231  0.29957253  0.99707830    -0.04070
C1657       C  0.23075097  0.32202592  0.02545710    -0.01170
C1658       C  0.23289806  0.36235775  0.02535059     0.03800
C1659       C  0.30146943  0.38076939  0.94544933     0.38450
C1660       C  0.21021640  0.30611401  0.05749667     0.38440
C1661       C  0.21209859  0.38419852  0.05389025     0.36860
C1662       C  0.28805567  0.30365632  0.93512499     0.36870
N1663       N  0.19535814  0.40138717  0.07653216    -0.37950
N1664       N  0.30074965  0.29203885  0.90694469    -0.37960
N1665       N  0.19394604  0.29636393  0.08449815    -0.37400
N1666       N  0.32132721  0.39648399  0.92436337    -0.37400
C1667       C  0.25566699  0.49576248  0.88297194    -0.04070
C1668       C  0.24947770  0.46253175  0.86168999    -0.01190
C1669       C  0.24879096  0.46419296  0.82132656     0.03800
C1670       C  0.25640840  0.49948709  0.80161695    -0.04070
C1671       C  0.27069670  0.52986533  0.82474770    -0.01170
C1672       C  0.26427876  0.52969814  0.86406834     0.03800
C1673       C  0.23867522  0.42784969  0.88132310     0.38450
C1674       C  0.29553567  0.55975840  0.81090971     0.38440
C1675       C  0.25692799  0.56580165  0.88240557     0.36860
C1676       C  0.23668811  0.42999607  0.80150710     0.36870
N1677       N  0.24793688  0.59504324  0.89453733    -0.37950
N1678       N  0.22696446  0.40184221  0.78738178    -0.37960
N1679       N  0.31615912  0.58352240  0.80112545    -0.37400
N1680       N  0.22914867  0.40035006  0.89664423    -0.37400
loop_ 
_geom_bond_atom_site_label_1 
_geom_bond_atom_site_label_2 
_geom_bond_distance 
_geom_bond_site_symmetry_2 
_ccdc_geom_bond_type 
O1           Ni9   1.899   1_554  S
O1           C11   1.274       .  A
O2           Ni9   1.900       .  S
O2           C12   1.276       .  A
O3           Ni9   1.930       .  S
O3           C13   1.286       .  A
O4           Ni9   1.933       .  S
O4           C14   1.286       .  A
O5          Ni10   1.901   1_554  S
O5           C14   1.277   1_554  A
O6          Ni10   1.898       .  S
O6           C13   1.276       .  A
O7          Ni10   1.927       .  S
O7           C12   1.283       .  A
O8          Ni10   1.927   1_554  S
O8           C11   1.285       .  A
Ni9         Ni10   2.390       .  S
C11        C1625   1.475       .  S
C12        C1667   1.472       .  S
C13        C1642   1.491       .  S
C14        C1653   1.491       .  S
C15        C1583   1.600       .  S
C15        C1597   1.613       .  S
C15        C1614   1.606       .  S
C15        C1670   1.586       .  S
O16         Ni24   1.906       .  S
O16          C26   1.278       .  A
O17         Ni24   1.909   1_556  S
O17          C27   1.279       .  A
O18         Ni24   1.916       .  S
O18          C28   1.283       .  A
O19         Ni24   1.918       .  S
O19          C29   1.282       .  A
O20         Ni25   1.919       .  S
O20          C29   1.281       .  A
O21         Ni25   1.922       .  S
O21          C28   1.280       .  A
O22         Ni25   1.924   1_556  S
O22          C27   1.283       .  A
O23         Ni25   1.922       .  S
O23          C26   1.283       .  A
Ni24        Ni25   2.390       .  S
C26        C1527   1.484       .  S
C27        C1541   1.487       .  S
C28        C1569   1.487       .  S
C29        C1555   1.490       .  S
C30        C1488   1.609       .  S
C30        C1499   1.617       .  S
C30        C1513   1.608       .  S
C30        C1544   1.607       .  S
O31         Ni39   1.914       .  S
O31          C41   1.277       .  A
O32         Ni39   1.909   1_655  S
O32          C42   1.277       .  A
O33         Ni39   1.929       .  S
O33          C43   1.284       .  A
O34         Ni39   1.920       .  S
O34          C44   1.285       .  A
O35         Ni40   1.909       .  S
O35          C44   1.276       .  A
O36         Ni40   1.905       .  S
O36          C43   1.276       .  A
O37         Ni40   1.931   1_655  S
O37          C42   1.286       .  A
O38         Ni40   1.918       .  S
O38          C41   1.286       .  A
Ni39        Ni40   2.382       .  S
C41        C1611   1.498       .  S
C42        C1516   1.498       .  S
C43        C1460   1.479       .  S
C44        C1471   1.508       .  S
O45         Ni53   1.930       .  S
O45          C55   1.282       .  A
O46         Ni53   1.920   1_655  S
O46          C56   1.282       .  A
O47         Ni53   1.908   1_655  S
O47          C57   1.280       .  A
O48         Ni53   1.912       .  S
O48          C58   1.282       .  A
O49         Ni54   1.909       .  S
O49          C58   1.278   1_655  A
O50         Ni54   1.903       .  S
O50          C57   1.277       .  A
O51         Ni54   1.909       .  S
O51          C56   1.280       .  A
O52         Ni54   1.910   1_455  S
O52          C55   1.281       .  A
Ni53        Ni54   2.384   1_455  S
C55        C1401   1.521       .  S
C56        C1443   1.485       .  S
C57        C1432   1.473       .  S
C58        C1415   1.484       .  S
C59        C1373   1.600       .  S
C59        C1387   1.600       .  S
C59        C1446   1.597       .  S
C59        C1530   1.608       .  S
C60        C1345   1.610       .  S
C60        C1359   1.626       .  S
C60        C1404   1.605       .  S
C60        C1628   1.589       .  S
O61         Ni69   1.903       .  S
O61          C71   1.278       .  A
O62         Ni69   1.910   1_556  S
O62          C72   1.278       .  A
O63         Ni69   1.907       .  S
O63          C73   1.279       .  A
O64         Ni69   1.904       .  S
O64          C74   1.282       .  A
O65         Ni70   1.922       .  S
O65          C74   1.280   1_556  A
O66         Ni70   1.919       .  S
O66          C73   1.282   1_556  A
O67         Ni70   1.913       .  S
O67          C72   1.281       .  A
O68         Ni70   1.912   1_554  S
O68          C71   1.281       .  A
Ni69        Ni70   2.391   1_554  S
C71        C1289   1.475       .  S
C72        C1303   1.476       .  S
C73        C1331   1.484       .  S
C74        C1317   1.489       .  S
C75        C1247   1.610       .  S
C75        C1261   1.610       .  S
C75        C1275   1.615       .  S
C75        C1306   1.603       .  S
O76         Ni84   1.927       .  S
O76          C86   1.281       .  A
O77         Ni84   1.932   1_565  S
O77          C87   1.283       .  A
O78         Ni84   1.911       .  S
O78          C88   1.281       .  A
O79         Ni84   1.910       .  S
O79          C89   1.280       .  A
O80         Ni85   1.910       .  S
O80          C89   1.280       .  A
O81         Ni85   1.920       .  S
O81          C88   1.280       .  A
O82         Ni85   1.915   1_565  S
O82          C87   1.281       .  A
O83         Ni85   1.913       .  S
O83          C86   1.281       .  A
Ni84        Ni85   2.370       .  S
C86        C1205   1.487       .  S
C87        C1278   1.525       .  S
C88        C1236   1.520       .  S
C89        C1219   1.509       .  S
O90         Ni98   1.927       .  S
O90         C100   1.282       .  A
O91         Ni98   1.919   1_556  S
O91         C101   1.282       .  A
O92         Ni98   1.908       .  S
O92         C102   1.280       .  A
O93         Ni98   1.914       .  S
O93         C103   1.281       .  A
O94         Ni99   1.893       .  S
O94         C103   1.276       .  A
O95         Ni99   1.903       .  S
O95         C102   1.277       .  A
O96         Ni99   1.891   1_556  S
O96         C101   1.276       .  A
O97         Ni99   1.895       .  S
O97         C100   1.279       .  A
Ni98        Ni99   2.381       .  S
C100       C1149   1.509       .  S
C101       C1191   1.505       .  S
C102       C1177   1.472   1_554  S
C103       C1163   1.474       .  S
C104       C1124   1.596       .  S
C104       C1138   1.636       .  S
C104       C1194   1.583       .  S
C104       C1208   1.629       .  S
O105       Ni113   1.905   1_545  S
O105        C115   1.275       .  A
O106       Ni113   1.894       .  S
O106        C116   1.275       .  A
O107       Ni113   1.907       .  S
O107        C117   1.284   1_565  A
O108       Ni113   1.906       .  S
O108        C118   1.280       .  A
O109       Ni114   1.906       .  S
O109        C118   1.278   1_545  A
O110       Ni114   1.914       .  S
O110        C117   1.277       .  A
O111       Ni114   1.932   1_565  S
O111        C116   1.285       .  A
O112       Ni114   1.928       .  S
O112        C115   1.286       .  A
Ni113      Ni114   2.382   1_565  S
C115       C1068   1.484       .  S
C116       C1110   1.482       .  S
C117       C1082   1.496       .  S
C118       C1093   1.508       .  S
C119       C1040   1.610       .  S
C119       C1051   1.615       .  S
C119       C1107   1.606       .  S
C119       C1292   1.609       .  S
C120       C1009   1.624       .  S
C120       C1026   1.615       .  S
C120       C1065   1.607       .  S
C120       C1152   1.613       .  S
O121       Ni129   1.927       .  S
O121        C131   1.283       .  A
O122       Ni129   1.932       .  S
O122        C132   1.283       .  A
O123       Ni129   1.924   1_545  S
O123        C133   1.282       .  A
O124       Ni129   1.916       .  S
O124        C134   1.281       .  A
O125       Ni130   1.910       .  S
O125        C134   1.280       .  A
O126       Ni130   1.919   1_545  S
O126        C133   1.281       .  A
O127       Ni130   1.911       .  S
O127        C132   1.279       .  A
O128       Ni130   1.901       .  S
O128        C131   1.279       .  A
Ni129      Ni130   2.388       .  S
C131        C981   1.489       .  S
C132        C967   1.486   1_565  S
C133        C953   1.485       .  S
C134        C995   1.487       .  S
C135        C911   1.595       .  S
C135        C925   1.597       .  S
C135        C942   1.602       .  S
C135        C998   1.603       .  S
O136       Ni144   1.909   1_545  S
O136        C146   1.279       .  A
O137       Ni144   1.916       .  S
O137        C147   1.281       .  A
O138       Ni144   1.932   1_545  S
O138        C148   1.283       .  A
O139       Ni144   1.927       .  S
O139        C149   1.283       .  A
O140       Ni145   1.925       .  S
O140        C149   1.282       .  A
O141       Ni145   1.917       .  S
O141        C148   1.281   1_565  A
O142       Ni145   1.918       .  S
O142        C147   1.282       .  A
O143       Ni145   1.920   1_545  S
O143        C146   1.281       .  A
Ni144      Ni145   2.388       .  S
C146        C855   1.473       .  S
C147        C869   1.496       .  S
C148        C883   1.489       .  S
C149        C897   1.496       .  S
C150        C813   1.638       .  S
C150        C827   1.594       .  S
C150        C841   1.614       .  S
C150        C872   1.604       .  S
O151       Ni159   1.936   1_455  S
O151        C161   1.287       .  A
O152       Ni159   1.936       .  S
O152        C162   1.286       .  A
O153       Ni159   1.914       .  S
O153        C163   1.278       .  A
O154       Ni159   1.914       .  S
O154        C164   1.279       .  A
O155       Ni160   1.943       .  S
O155        C164   1.288       .  A
O156       Ni160   1.930       .  S
O156        C163   1.284       .  A
O157       Ni160   1.892       .  S
O157        C162   1.275       .  A
O158       Ni160   1.893   1_455  S
O158        C161   1.274       .  A
Ni159      Ni160   2.382       .  S
C161        C939   1.483       .  S
C162        C844   1.507       .  S
C163        C802   1.483   1_655  S
C164        C785   1.507       .  S
O165       Ni173   1.925   1_455  S
O165        C175   1.285       .  A
O166       Ni173   1.940       .  S
O166        C176   1.283       .  A
O167       Ni173   1.903       .  S
O167        C177   1.280       .  A
O168       Ni173   1.908   1_455  S
O168        C178   1.278   1_455  A
O169       Ni174   1.914       .  S
O169        C178   1.281       .  A
O170       Ni174   1.911       .  S
O170        C177   1.279       .  A
O171       Ni174   1.903       .  S
O171        C176   1.282       .  A
O172       Ni174   1.896   1_455  S
O172        C175   1.276       .  A
Ni173      Ni174   2.390       .  S
C175        C729   1.482       .  S
C176        C774   1.496       .  S
C177        C743   1.476       .  S
C178        C757   1.471   1_655  S
C179        C701   1.618       .  S
C179        C715   1.610       .  S
C179        C771   1.628       .  S
C179        C858   1.575       .  S
C180        C673   1.612       .  S
C180        C687   1.596       .  S
C180        C732   1.605       .  S
C180        C956   1.600       .  S
C181        C645   1.604   1_455  S
C181        C659   1.597       .  S
C181        C760   1.601       .  S
C181       C1429   1.598       .  S
C182        C620   1.615   1_545  S
C182        C631   1.608       .  S
C182        C900   1.598       .  S
C182       C1079   1.604   1_545  S
C183        C592   1.617   1_455  S
C183        C603   1.602       .  S
C183        C799   1.610       .  S
C183       C1418   1.592       .  S
C184        C561   1.616       .  S
C184        C575   1.600   1_565  S
C184        C984   1.604       .  S
C184       C1096   1.606       .  S
C185        C533   1.597   1_455  S
C185        C550   1.627       .  S
C185        C788   1.623   1_455  S
C185       C1457   1.596       .  S
C186        C508   1.619   1_545  S
C186        C519   1.615       .  S
C186        C970   1.605       .  S
C186       C1233   1.613       .  S
C187        C477   1.628       .  S
C187        C491   1.627   1_655  S
C187        C746   1.587       .  S
C187       C1474   1.599   1_655  S
C188        C449   1.583   1_545  S
C188        C463   1.626       .  S
C188        C886   1.620       .  S
C188       C1222   1.591       .  S
C189        C421   1.603       .  S
C189        C435   1.603   1_556  S
C189       C1180   1.596       .  S
C189       C1656   1.608       .  S
C190        C396   1.625       .  S
C190        C410   1.596   1_556  S
C190       C1320   1.622   1_556  S
C190       C1639   1.598       .  S
C191        C365   1.597   1_554  S
C191        C379   1.621       .  S
C191       C1166   1.580   1_554  S
C191       C1572   1.631       .  S
C192        C340   1.607   1_554  S
C192        C354   1.609       .  S
C192       C1334   1.606   1_554  S
C192       C1558   1.611       .  S
C193        C382   1.487       .  S
C193        C194   1.408       .  A
C193        C198   1.391       .  A
C194        C195   1.420       .  A
C194        H199   1.077       .  S
C195        C634   1.537       .  S
C195        C196   1.417       .  A
C196        C197   1.409       .  A
C196        H200   1.078       .  S
C197        C648   1.490       .  S
C197        C198   1.396       .  A
C198        H201   1.084       .  S
C202        C407   1.489       .  S
C202        C203   1.402       .  A
C202        C207   1.393       .  A
C203        C204   1.421       .  A
C203        H208   1.078       .  S
C204        C606   1.529       .  S
C204        C205   1.416       .  A
C205        C206   1.400       .  A
C205        H209   1.076       .  S
C206        C564   1.483       .  S
C206        C207   1.396       .  A
C207        H210   1.084       .  S
C211        C522   1.513       .  S
C211        C212   1.419       .  A
C211        C216   1.403       .  A
C212        C213   1.422       .  A
C212        H217   1.083       .  S
C213        C494   1.525       .  S
C213        C214   1.410       .  A
C214        C215   1.407       .  A
C214        H218   1.080       .  S
C215        C424   1.495       .  S
C215        C216   1.398       .  A
C216        H219   1.083       .  S
C220        C589   1.511       .  S
C220        C221   1.407       .  A
C220        C225   1.418       .  A
C221        C222   1.398       .  A
C221        H226   1.083       .  S
C222        C617   1.489       .  S
C222        C223   1.399       .  A
C223        C224   1.405       .  A
C223        H227   1.084       .  S
C224        C351   1.506       .  S
C224        C225   1.415       .  A
C225        H228   1.083       .  S
C229        C393   1.526       .  S
C229        C230   1.419       .  A
C229        C234   1.409       .  A
C230        C231   1.416       .  A
C230        H235   1.080       .  S
C231        C547   1.512       .  S
C231        C232   1.403       .  A
C232        C233   1.402       .  A
C232        H236   1.083       .  S
C233        C505   1.490       .  S
C233        C234   1.402       .  A
C234        H237   1.082       .  S
C238        C368   1.507       .  S
C238        C239   1.408       .  A
C238        C243   1.406       .  A
C239        C240   1.412       .  A
C239        H244   1.080       .  S
C240        C480   1.512       .  S
C240        C241   1.416       .  A
C241        C242   1.402       .  A
C241        H245   1.083       .  S
C242        C466   1.494       .  S
C242        C243   1.398       .  A
C243        H246   1.084       .  S
C247        C536   1.535       .  S
C247        C248   1.406       .  A
C247        C252   1.420       .  A
C248        C249   1.402       .  A
C248        H253   1.058       .  S
C249        C452   1.505       .  S
C249        C250   1.403       .  A
C250        C251   1.402       .  A
C250        H254   1.083       .  S
C251        C337   1.511       .  S
C251        C252   1.409       .  A
C252        H255   1.073       .  S
C256        C662   1.500       .  S
C256        C257   1.408       .  A
C256        C261   1.405       .  A
C257        C258   1.408       .  A
C257        H262   1.083       .  S
C258        C578   1.496       .  S
C258        C259   1.405       .  A
C259        C260   1.408       .  A
C259        H263   1.084       .  S
C260        C438   1.499       .  S
C260        C261   1.401       .  A
C261        H264   1.083       .  S
C265       C1121   1.490       .  S
C265        C266   1.396       .  A
C265        C270   1.392       .  A
C266        C267   1.412       .  A
C266        H271   1.077       .  S
C267       C1586   1.529       .  S
C267        C268   1.421       .  A
C268        C269   1.422       .  A
C268        H272   1.072       .  S
C269        C690   1.524       .  S
C269        C270   1.405       .  A
C270        H273   1.078       .  S
C274       C1376   1.492       .  S
C274        C275   1.413       .  A
C274        C279   1.399       .  A
C275        C276   1.415       .  A
C275        H280   1.082       .  S
C276       C1023   1.527       .  S
C276        C277   1.415       .  A
C277        C278   1.408       .  A
C277        H281   1.082       .  S
C278        C704   1.489       .  S
C278        C279   1.394       .  A
C279        H282   1.084       .  S
C283       C1037   1.559       .  S
C283        C284   1.431       .  A
C283        C288   1.413       .  A
C284        C285   1.429       .  A
C284        H289   1.074       .  S
C285       C1362   1.522       .  S
C285        C286   1.401       .  A
C286        C287   1.396       .  A
C286        H290   1.081       .  S
C287        C914   1.485       .  S
C287        C288   1.393       .  A
C288        H291   1.071       .  S
C292       C1012   1.494       .  S
C292        C293   1.404       .  A
C292        C297   1.401       .  A
C293        C294   1.413       .  A
C293        H298   1.084       .  S
C294        C676   1.501       .  S
C294        C295   1.406       .  A
C295        C296   1.399       .  A
C295        H299   1.083       .  S
C296       C1348   1.487       .  S
C296        C297   1.404       .  A
C297        H300   1.084       .  S
C301       C1600   1.488       .  S
C301        C302   1.403       .  A
C301        C306   1.399       .  A
C302        C303   1.413       .  A
C302        H307   1.083       .  S
C303       C1250   1.513       .  S
C303        C304   1.410       .  A
C304        C305   1.406       .  A
C304        H308   1.083       .  S
C305        C928   1.489       .  S
C305        C306   1.400       .  A
C306        H309   1.084       .  S
C310       C1135   1.498       .  S
C310        C311   1.405       .  A
C310        C315   1.403       .  A
C311        C312   1.416       .  A
C311        H316   1.083       .  S
C312        C718   1.513       .  S
C312        C313   1.409       .  A
C313        C314   1.410       .  A
C313        H317   1.082       .  S
C314       C1485   1.506       .  S
C314        C315   1.405       .  A
C315        H318   1.084       .  S
C319       C1054   1.507       .  S
C319        C320   1.402       .  A
C319        C324   1.414       .  A
C320        C321   1.399       .  A
C320        H325   1.083       .  S
C321       C1390   1.494       .  S
C321        C322   1.405       .  A
C322        C323   1.402       .  A
C322        H326   1.083       .  S
C323        C816   1.512       .  S
C323        C324   1.415       .  A
C324        H327   1.082       .  S
C328       C1502   1.511       .  S
C328        C329   1.416       .  A
C328        C333   1.408       .  A
C329        C330   1.407       .  A
C329        H334   1.083       .  S
C330       C1264   1.485       .  S
C330        C331   1.392       .  A
C331        C332   1.393       .  A
C331        H335   1.085       .  S
C332        C830   1.488       .  S
C332        C333   1.406       .  A
C333        H336   1.083       .  S
C337        C338   1.413       .  A
C337        C342   1.409       .  A
C338        C339   1.417       .  A
C338        C343   1.454       .  S
C339        C340   1.445       .  A
C339        C346   1.452       .  S
C340        C341   1.443       .  A
C341        C342   1.411       .  A
C341        C344   1.450       .  S
C342        C345   1.452       .  S
C343        N350   1.157       .  T
C344        N349   1.158       .  T
C345        N347   1.157       .  T
C346        N348   1.157   1_556  T
C351        C352   1.408       .  A
C351        C356   1.405       .  A
C352        C353   1.414       .  A
C352        C357   1.453       .  S
C353        C354   1.447       .  A
C353        C360   1.451       .  S
C354        C355   1.445       .  A
C355        C356   1.415       .  A
C355        C358   1.451       .  S
C356        C359   1.447       .  S
C357        N364   1.157       .  T
C358        N363   1.157   1_554  T
C359        N361   1.156       .  T
C360        N362   1.158       .  T
C365        C366   1.440       .  A
C365        C370   1.446       .  A
C366        C367   1.405       .  A
C366        C371   1.451       .  S
C367        C368   1.411       .  A
C367        C374   1.456       .  S
C368        C369   1.414       .  A
C369        C370   1.421       .  A
C369        C372   1.451       .  S
C370        C373   1.455       .  S
C371        N378   1.158       .  T
C372        N377   1.157       .  T
C373        N375   1.158   1_556  T
C374        N376   1.157       .  T
C379        C380   1.452       .  A
C379        C384   1.442       .  A
C380        C381   1.414       .  A
C380        C385   1.456       .  S
C381        C382   1.401       .  A
C381        C388   1.455       .  S
C382        C383   1.395       .  A
C383        C384   1.415       .  A
C383        C386   1.454       .  S
C384        C387   1.443       .  S
C385        N392   1.158   1_554  T
C386        N391   1.157       .  T
C387        N389   1.158       .  T
C388        N390   1.157       .  T
C393        C394   1.418       .  A
C393        C398   1.405       .  A
C394        C395   1.427       .  A
C394        C399   1.455       .  S
C395        C396   1.445       .  A
C395        C402   1.440       .  S
C396        C397   1.454       .  A
C397        C398   1.411       .  A
C397        C400   1.451       .  S
C398        C401   1.452       .  S
C399        N406   1.158       .  T
C400        N405   1.158       .  T
C401        N403   1.157       .  T
C402        N404   1.158       .  T
C407        C408   1.404       .  A
C407        C412   1.396       .  A
C408        C409   1.418       .  A
C408        C413   1.456       .  S
C409        C410   1.444       .  A
C409        C416   1.448   1_554  S
C410        C411   1.447       .  A
C411        C412   1.416       .  A
C411        C414   1.446       .  S
C412        C415   1.455       .  S
C413        N420   1.157       .  T
C414        N419   1.156       .  T
C415        N417   1.157       .  T
C416        N418   1.158       .  T
C421        C422   1.450       .  A
C421        C426   1.443       .  A
C422        C423   1.419       .  A
C422        C427   1.450       .  S
C423        C424   1.403       .  A
C423        C430   1.453       .  S
C424        C425   1.401       .  A
C425        C426   1.404       .  A
C425        C428   1.451       .  S
C426        C429   1.451       .  S
C427        N434   1.157   1_556  T
C428        N433   1.157       .  T
C429        N431   1.158       .  T
C430        N432   1.157       .  T
C435        C436   1.443       .  A
C435        C440   1.445       .  A
C436        C437   1.399       .  A
C436        C441   1.454       .  S
C437        C438   1.402       .  A
C437        C444   1.449       .  S
C438        C439   1.412       .  A
C439        C440   1.420       .  A
C439        C442   1.453       .  S
C440        C443   1.452       .  S
C441        N448   1.158       .  T
C442        N447   1.157       .  T
C443        N445   1.157   1_554  T
C444        N446   1.155       .  T
C449        C450   1.438       .  A
C449        C454   1.444       .  A
C450        C451   1.410       .  A
C450        C455   1.457       .  S
C451        C452   1.413       .  A
C451        C458   1.453       .  S
C452        C453   1.413       .  A
C453        C454   1.416       .  A
C453        C456   1.459       .  S
C454        C457   1.451       .  S
C455        N462   1.158   1_565  T
C456        N461   1.158       .  T
C457        N459   1.158       .  T
C458        N460   1.157       .  T
C463        C464   1.444       .  A
C463        C468   1.449       .  A
C464        C465   1.425       .  A
C464        C469   1.453       .  S
C465        C466   1.407       .  A
C465        C472   1.451       .  S
C466        C467   1.398       .  A
C467        C468   1.409       .  A
C467        C470   1.455       .  S
C468        C471   1.453       .  S
C469        N476   1.158       .  T
C470        N475   1.157       .  T
C471        N473   1.159   1_545  T
C472        N474   1.157       .  T
C477        C478   1.457       .  A
C477        C482   1.423       .  A
C478        C479   1.432       .  A
C478        C483   1.451       .  S
C479        C480   1.415       .  A
C479        C486   1.456       .  S
C480        C481   1.406       .  A
C481        C482   1.398       .  A
C481        C484   1.449       .  S
C482        C485   1.451       .  S
C483        N490   1.158       .  T
C484        N489   1.157       .  T
C485        N487   1.158       .  T
C486        N488   1.158       .  T
C491        C492   1.448       .  A
C491        C496   1.445       .  A
C492        C493   1.428       .  A
C492        C497   1.447       .  S
C493        C494   1.409       .  A
C493        C500   1.450       .  S
C494        C495   1.408       .  A
C495        C496   1.408       .  A
C495        C498   1.449       .  S
C496        C499   1.452       .  S
C497        N504   1.158       .  T
C498        N503   1.157       .  T
C499        N501   1.158       .  T
C500        N502   1.156       .  T
C505        C506   1.395       .  A
C505        C510   1.400       .  A
C506        C507   1.420       .  A
C506        C511   1.454       .  S
C507        C508   1.454       .  A
C507        C514   1.446       .  S
C508        C509   1.450       .  A
C509        C510   1.417       .  A
C509        C512   1.450       .  S
C510        C513   1.455       .  S
C511        N518   1.157       .  T
C512        N517   1.158   1_565  T
C513        N515   1.157       .  T
C514        N516   1.158       .  T
C519        C520   1.453       .  A
C519        C524   1.445       .  A
C520        C521   1.428       .  A
C520        C525   1.452       .  S
C521        C522   1.411       .  A
C521        C528   1.456       .  S
C522        C523   1.400       .  A
C523        C524   1.416       .  A
C523        C526   1.451       .  S
C524        C527   1.449       .  S
C525        N532   1.158       .  T
C526        N531   1.156       .  T
C527        N529   1.157   1_545  T
C528        N530   1.158       .  T
C533        C534   1.428       .  A
C533        C538   1.450       .  A
C534        C535   1.418       .  A
C534        C539   1.452       .  S
C535        C536   1.430       .  A
C535        C542   1.452       .  S
C536        C537   1.413       .  A
C537        C538   1.412       .  A
C537        C540   1.456       .  S
C538        C541   1.457       .  S
C539        N546   1.157   1_655  T
C540        N545   1.158       .  T
C541        N543   1.158       .  T
C542        N544   1.158       .  T
C547        C548   1.409       .  A
C547        C552   1.398       .  A
C548        C549   1.425       .  A
C548        C553   1.453       .  S
C549        C550   1.449       .  A
C549        C556   1.449       .  S
C550        C551   1.456       .  A
C551        C552   1.419       .  A
C551        C554   1.443       .  S
C552        C555   1.459       .  S
C553        N560   1.158       .  T
C554        N559   1.158       .  T
C555        N557   1.157       .  T
C556        N558   1.158       .  T
C561        C562   1.444       .  A
C561        C566   1.457       .  A
C562        C563   1.416       .  A
C562        C567   1.445       .  S
C563        C564   1.401       .  A
C563        C570   1.458       .  S
C564        C565   1.392       .  A
C565        C566   1.414       .  A
C565        C568   1.454       .  S
C566        C569   1.454   1_565  S
C567        N574   1.158       .  T
C568        N573   1.157       .  T
C569        N571   1.158       .  T
C570        N572   1.157       .  T
C575        C576   1.447       .  A
C575        C580   1.447       .  A
C576        C577   1.408       .  A
C576        C581   1.449       .  S
C577        C578   1.396       .  A
C577        C584   1.450       .  S
C578        C579   1.402       .  A
C579        C580   1.420       .  A
C579        C582   1.449       .  S
C580        C583   1.447       .  S
C581        N588   1.157   1_545  T
C582        N587   1.156       .  T
C583        N585   1.158       .  T
C584        N586   1.156       .  T
C589        C590   1.410       .  A
C589        C594   1.403       .  A
C590        C591   1.418       .  A
C590        C595   1.455       .  S
C591        C592   1.448       .  A
C591        C598   1.450       .  S
C592        C593   1.448       .  A
C593        C594   1.418       .  A
C593        C596   1.448       .  S
C594        C597   1.450       .  S
C595        N602   1.158       .  T
C596        N601   1.158   1_655  T
C597        N599   1.155       .  T
C598        N600   1.159       .  T
C603        C604   1.433       .  A
C603        C608   1.450       .  A
C604        C605   1.418       .  A
C604        C609   1.448       .  S
C605        C606   1.419       .  A
C605        C612   1.448       .  S
C606        C607   1.411       .  A
C607        C608   1.413       .  A
C607        C610   1.454       .  S
C608        C611   1.453       .  S
C609        N616   1.157       .  T
C610        N615   1.158       .  T
C611        N613   1.158       .  T
C612        N614   1.156       .  T
C617        C618   1.394       .  A
C617        C622   1.396       .  A
C618        C619   1.421       .  A
C618        C623   1.458       .  S
C619        C620   1.457       .  A
C619        C626   1.446   1_565  S
C620        C621   1.451       .  A
C621        C622   1.417       .  A
C621        C624   1.446       .  S
C622        C625   1.457       .  S
C623        N630   1.157       .  T
C624        N629   1.157       .  T
C625        N627   1.157       .  T
C626        N628   1.158       .  T
C631        C632   1.442       .  A
C631        C636   1.433       .  A
C632        C633   1.419       .  A
C632        C637   1.451       .  S
C633        C634   1.425       .  A
C633        C640   1.450       .  S
C634        C635   1.422       .  A
C635        C636   1.411       .  A
C635        C638   1.449       .  S
C636        C639   1.441       .  S
C637        N644   1.157       .  T
C638        N643   1.158       .  T
C639        N641   1.156       .  T
C640        N642   1.157       .  T
C645        C646   1.443       .  A
C645        C650   1.449       .  A
C646        C647   1.400       .  A
C646        C651   1.451       .  S
C647        C648   1.400       .  A
C647        C654   1.453       .  S
C648        C649   1.404       .  A
C649        C650   1.420       .  A
C649        C652   1.453       .  S
C650        C653   1.450       .  S
C651        N658   1.158       .  T
C652        N657   1.157       .  T
C653        N655   1.157   1_655  T
C654        N656   1.157       .  T
C659        C660   1.445       .  A
C659        C664   1.440       .  A
C660        C661   1.408       .  A
C660        C665   1.453       .  S
C661        C662   1.407       .  A
C661        C668   1.455       .  S
C662        C663   1.409       .  A
C663        C664   1.413       .  A
C663        C666   1.447       .  S
C664        C667   1.453       .  S
C665        N672   1.158       .  T
C666        N671   1.155       .  T
C667        N669   1.157   1_455  T
C668        N670   1.158       .  T
C673        C674   1.450       .  A
C673        C678   1.447       .  A
C674        C675   1.416       .  A
C674        C679   1.447       .  S
C675        C676   1.403       .  A
C675        C682   1.457       .  S
C676        C677   1.406       .  A
C677        C678   1.414       .  A
C677        C680   1.453       .  S
C678        C681   1.452       .  S
C679        N686   1.158       .  T
C680        N685   1.157       .  T
C681        N683   1.158       .  T
C682        N684   1.158       .  T
C687        C688   1.435       .  A
C687        C692   1.445       .  A
C688        C689   1.409       .  A
C688        C693   1.448       .  S
C689        C690   1.410       .  A
C689        C696   1.449       .  S
C690        C691   1.420       .  A
C691        C692   1.419       .  A
C691        C694   1.453       .  S
C692        C695   1.455       .  S
C693        N700   1.157       .  T
C694        N699   1.157       .  T
C695        N697   1.158       .  T
C696        N698   1.157       .  T
C701        C702   1.448       .  A
C701        C706   1.445       .  A
C702        C703   1.410       .  A
C702        C707   1.453       .  S
C703        C704   1.398       .  A
C703        C710   1.453       .  S
C704        C705   1.398       .  A
C705        C706   1.418       .  A
C705        C708   1.457       .  S
C706        C709   1.442       .  S
C707        N714   1.158       .  T
C708        N713   1.157       .  T
C709        N711   1.158       .  T
C710        N712   1.157       .  T
C715        C716   1.444       .  A
C715        C720   1.444       .  A
C716        C717   1.423       .  A
C716        C721   1.455       .  S
C717        C718   1.416       .  A
C717        C724   1.451       .  S
C718        C719   1.409       .  A
C719        C720   1.409       .  A
C719        C722   1.454       .  S
C720        C723   1.453       .  S
C721        N728   1.158       .  T
C722        N727   1.158       .  T
C723        N725   1.158       .  T
C724        N726   1.157       .  T
C729        C730   1.402       .  A
C729        C734   1.401       .  A
C730        C731   1.412       .  A
C730        C735   1.454       .  S
C731        C732   1.445       .  A
C731        C738   1.446       .  S
C732        C733   1.450       .  A
C733        C734   1.407       .  A
C733        C736   1.451       .  S
C734        C737   1.454       .  S
C735        N742   1.157       .  T
C736        N741   1.158       .  T
C737        N739   1.158       .  T
C738        N740   1.158       .  T
C743        C744   1.405   1_655  A
C743        C748   1.393       .  A
C744        C745   1.420       .  A
C744        C749   1.454       .  S
C745        C746   1.447   1_455  A
C745        C752   1.452       .  S
C746        C747   1.441       .  A
C747        C748   1.398       .  A
C747        C750   1.448       .  S
C748        C751   1.452       .  S
C749        N756   1.157       .  T
C750        N755   1.157       .  T
C751        N753   1.155       .  T
C752        N754   1.158       .  T
C757        C758   1.392       .  A
C757        C762   1.394   1_455  A
C758        C759   1.410       .  A
C758        C763   1.453       .  S
C759        C760   1.450       .  A
C759        C766   1.450       .  S
C760        C761   1.455   1_455  A
C761        C762   1.412       .  A
C761        C764   1.453       .  S
C762        C765   1.455       .  S
C763        N770   1.156       .  T
C764        N769   1.158       .  T
C765        N767   1.157       .  T
C766        N768   1.158       .  T
C771        C772   1.445       .  A
C771        C776   1.447       .  A
C772        C773   1.402       .  A
C772        C777   1.450       .  S
C773        C774   1.394       .  A
C773        C780   1.459       .  S
C774        C775   1.401       .  A
C775        C776   1.423       .  A
C775        C778   1.446       .  S
C776        C779   1.449       .  S
C777        N784   1.158       .  T
C778        N783   1.157       .  T
C779        N781   1.158       .  T
C780        N782   1.157       .  T
C785        C786   1.404       .  A
C785        C790   1.407   1_655  A
C786        C787   1.422       .  A
C786        C791   1.453       .  S
C787        C788   1.451       .  A
C787        C794   1.445       .  S
C788        C789   1.448   1_655  A
C789        C790   1.414       .  A
C789        C792   1.451       .  S
C790        C793   1.451       .  S
C791        N798   1.157       .  T
C792        N797   1.158       .  T
C793        N795   1.158       .  T
C794        N796   1.158       .  T
C799        C800   1.453   1_455  A
C799        C804   1.451       .  A
C800        C801   1.418       .  A
C800        C805   1.450       .  S
C801        C802   1.396   1_655  A
C801        C808   1.454       .  S
C802        C803   1.392       .  A
C803        C804   1.413       .  A
C803        C806   1.452       .  S
C804        C807   1.447       .  S
C805        N812   1.157       .  T
C806        N811   1.157       .  T
C807        N809   1.158       .  T
C808        N810   1.157       .  T
C813        C814   1.450       .  A
C813        C818   1.454       .  A
C814        C815   1.427       .  A
C814        C819   1.449       .  S
C815        C816   1.412       .  A
C815        C822   1.457       .  S
C816        C817   1.401       .  A
C817        C818   1.411       .  A
C817        C820   1.455       .  S
C818        C821   1.454       .  S
C819        N826   1.159       .  T
C820        N825   1.158       .  T
C821        N823   1.158       .  T
C822        N824   1.158       .  T
C827        C828   1.444       .  A
C827        C832   1.454       .  A
C828        C829   1.413       .  A
C828        C833   1.452       .  S
C829        C830   1.405       .  A
C829        C836   1.454       .  S
C830        C831   1.398       .  A
C831        C832   1.412       .  A
C831        C834   1.460       .  S
C832        C835   1.450       .  S
C833        N840   1.157       .  T
C834        N839   1.158       .  T
C835        N837   1.159       .  T
C836        N838   1.157       .  T
C841        C842   1.445       .  A
C841        C846   1.431       .  A
C842        C843   1.402       .  A
C842        C847   1.460       .  S
C843        C844   1.415       .  A
C843        C850   1.455       .  S
C844        C845   1.414       .  A
C845        C846   1.423       .  A
C845        C848   1.454       .  S
C846        C849   1.440       .  S
C847        N854   1.158       .  T
C848        N853   1.157       .  T
C849        N851   1.158       .  T
C850        N852   1.158       .  T
C855        C856   1.395       .  A
C855        C860   1.404       .  A
C856        C857   1.395       .  A
C856        C861   1.444       .  S
C857        C858   1.433       .  A
C857        C864   1.449       .  S
C858        C859   1.445       .  A
C859        C860   1.416       .  A
C859        C862   1.451       .  S
C860        C863   1.452       .  S
C861        N868   1.156       .  T
C862        N867   1.157       .  T
C863        N865   1.157       .  T
C864        N866   1.158       .  T
C869        C870   1.403       .  A
C869        C874   1.410       .  A
C870        C871   1.406       .  A
C870        C875   1.450       .  S
C871        C872   1.450       .  A
C871        C878   1.459       .  S
C872        C873   1.447       .  A
C873        C874   1.421       .  A
C873        C876   1.448       .  S
C874        C877   1.456       .  S
C875        N882   1.158       .  T
C876        N881   1.158       .  T
C877        N879   1.157       .  T
C878        N880   1.158       .  T
C883        C884   1.403       .  A
C883        C888   1.406   1_545  A
C884        C885   1.406       .  A
C884        C889   1.447       .  S
C885        C886   1.422       .  A
C885        C892   1.446       .  S
C886        C887   1.460   1_545  A
C887        C888   1.424       .  A
C887        C890   1.451       .  S
C888        C891   1.456       .  S
C889        N896   1.157       .  T
C890        N895   1.158       .  T
C891        N893   1.157       .  T
C892        N894   1.158       .  T
C897        C898   1.404   1_565  A
C897        C902   1.408       .  A
C898        C899   1.414       .  A
C898        C903   1.453       .  S
C899        C900   1.444       .  A
C899        C906   1.454       .  S
C900        C901   1.435   1_545  A
C901        C902   1.416       .  A
C901        C904   1.451       .  S
C902        C905   1.445       .  S
C903        N910   1.158       .  T
C904        N909   1.158       .  T
C905        N907   1.154       .  T
C906        N908   1.157       .  T
C911        C912   1.447       .  A
C911        C916   1.441       .  A
C912        C913   1.416       .  A
C912        C917   1.452       .  S
C913        C914   1.405       .  A
C913        C920   1.451       .  S
C914        C915   1.395       .  A
C915        C916   1.397       .  A
C915        C918   1.449       .  S
C916        C919   1.450       .  S
C917        N924   1.157       .  T
C918        N923   1.158       .  T
C919        N921   1.158       .  T
C920        N922   1.157       .  T
C925        C926   1.449       .  A
C925        C930   1.438       .  A
C926        C927   1.420       .  A
C926        C931   1.452       .  S
C927        C928   1.407       .  A
C927        C934   1.452       .  S
C928        C929   1.399       .  A
C929        C930   1.398       .  A
C929        C932   1.448       .  S
C930        C933   1.451       .  S
C931        N938   1.157       .  T
C932        N937   1.156       .  T
C933        N935   1.158       .  T
C934        N936   1.157       .  T
C939        C940   1.396       .  A
C939        C944   1.402       .  A
C940        C941   1.416       .  A
C940        C945   1.450       .  S
C941        C942   1.448       .  A
C941        C948   1.449       .  S
C942        C943   1.450       .  A
C943        C944   1.409       .  A
C943        C946   1.456       .  S
C944        C947   1.456       .  S
C945        N952   1.154       .  T
C946        N951   1.158       .  T
C947        N949   1.158       .  T
C948        N950   1.158       .  T
C953        C954   1.395       .  A
C953        C958   1.398       .  A
C954        C955   1.410       .  A
C954        C959   1.456       .  S
C955        C956   1.448       .  A
C955        C962   1.448       .  S
C956        C957   1.444       .  A
C957        C958   1.418       .  A
C957        C960   1.449       .  S
C958        C961   1.449       .  S
C959        N966   1.158       .  T
C960        N965   1.158       .  T
C961        N963   1.156       .  T
C962        N964   1.157       .  T
C967        C968   1.402   1_545  A
C967        C972   1.402       .  A
C968        C969   1.415       .  A
C968        C973   1.448       .  S
C969        C970   1.444   1_565  A
C969        C976   1.450       .  S
C970        C971   1.448       .  A
C971        C972   1.416       .  A
C971        C974   1.448       .  S
C972        C975   1.456       .  S
C973        N980   1.155       .  T
C974        N979   1.158       .  T
C975        N977   1.157       .  T
C976        N978   1.158       .  T
C981        C982   1.399   1_565  A
C981        C986   1.406       .  A
C982        C983   1.407       .  A
C982        C987   1.459       .  S
C983        C984   1.449   1_545  A
C983        C990   1.449       .  S
C984        C985   1.444       .  A
C985        C986   1.425       .  A
C985        C988   1.442       .  S
C986        C989   1.454       .  S
C987        N994   1.158       .  T
C988        N993   1.156       .  T
C989        N991   1.157       .  T
C990        N992   1.158       .  T
C995        C996   1.407       .  A
C995       C1000   1.398       .  A
C996        C997   1.419       .  A
C996       C1001   1.456       .  S
C997        C998   1.448       .  A
C997       C1004   1.448       .  S
C998        C999   1.449       .  A
C999       C1000   1.404       .  A
C999       C1002   1.454       .  S
C1000      C1003   1.452       .  S
C1001      N1008   1.157       .  T
C1002      N1007   1.158       .  T
C1003      N1005   1.158       .  T
C1004      N1006   1.158       .  T
C1009      C1010   1.458       .  A
C1009      C1014   1.452       .  A
C1010      C1011   1.420       .  A
C1010      C1015   1.452       .  S
C1011      C1012   1.397       .  A
C1011      C1018   1.456       .  S
C1012      C1013   1.396       .  A
C1013      C1014   1.422       .  A
C1013      C1016   1.456       .  S
C1014      C1017   1.446       .  S
C1015      N1022   1.158       .  T
C1016      N1021   1.157       .  T
C1017      N1019   1.157       .  T
C1018      N1020   1.157       .  T
C1023      C1024   1.413       .  A
C1023      C1028   1.416       .  A
C1024      C1025   1.421       .  A
C1024      C1029   1.455       .  S
C1025      C1026   1.445       .  A
C1025      C1032   1.451       .  S
C1026      C1027   1.446       .  A
C1027      C1028   1.427       .  A
C1027      C1030   1.452       .  S
C1028      C1031   1.452       .  S
C1029      N1036   1.157       .  T
C1030      N1035   1.158       .  T
C1031      N1033   1.156       .  T
C1032      N1034   1.157       .  T
C1037      C1038   1.427       .  A
C1037      C1042   1.427       .  A
C1038      C1039   1.419       .  A
C1038      C1043   1.454       .  S
C1039      C1040   1.442       .  A
C1039      C1046   1.456       .  S
C1040      C1041   1.438       .  A
C1041      C1042   1.429       .  A
C1041      C1044   1.454       .  S
C1042      C1045   1.447       .  S
C1043      N1050   1.158       .  T
C1044      N1049   1.157       .  T
C1045      N1047   1.156       .  T
C1046      N1048   1.159       .  T
C1051      C1052   1.446       .  A
C1051      C1056   1.449       .  A
C1052      C1053   1.413       .  A
C1052      C1057   1.452       .  S
C1053      C1054   1.408       .  A
C1053      C1060   1.455       .  S
C1054      C1055   1.406       .  A
C1055      C1056   1.419       .  A
C1055      C1058   1.455       .  S
C1056      C1059   1.448       .  S
C1057      N1064   1.158       .  T
C1058      N1063   1.157       .  T
C1059      N1061   1.157       .  T
C1060      N1062   1.158       .  T
C1065      C1066   1.453       .  A
C1065      C1070   1.448       .  A
C1066      C1067   1.413       .  A
C1066      C1071   1.448       .  S
C1067      C1068   1.394       .  A
C1067      C1074   1.457       .  S
C1068      C1069   1.405       .  A
C1069      C1070   1.423       .  A
C1069      C1072   1.454       .  S
C1070      C1073   1.448       .  S
C1071      N1078   1.158       .  T
C1072      N1077   1.157       .  T
C1073      N1075   1.158       .  T
C1074      N1076   1.156       .  T
C1079      C1080   1.435       .  A
C1079      C1084   1.436       .  A
C1080      C1081   1.384   1_565  A
C1080      C1085   1.453       .  S
C1081      C1082   1.402       .  A
C1081      C1088   1.454       .  S
C1082      C1083   1.424   1_545  A
C1083      C1084   1.429       .  A
C1083      C1086   1.450       .  S
C1084      C1087   1.451       .  S
C1085      N1092   1.158       .  T
C1086      N1091   1.157       .  T
C1087      N1089   1.158       .  T
C1088      N1090   1.157       .  T
C1093      C1094   1.420       .  A
C1093      C1098   1.413       .  A
C1094      C1095   1.420       .  A
C1094      C1099   1.456       .  S
C1095      C1096   1.435       .  A
C1095      C1102   1.448       .  S
C1096      C1097   1.447       .  A
C1097      C1098   1.408       .  A
C1097      C1100   1.458       .  S
C1098      C1101   1.458       .  S
C1099      N1106   1.158       .  T
C1100      N1105   1.158       .  T
C1101      N1103   1.158       .  T
C1102      N1104   1.157       .  T
C1107      C1108   1.450       .  A
C1107      C1112   1.451       .  A
C1108      C1109   1.419       .  A
C1108      C1113   1.449       .  S
C1109      C1110   1.402       .  A
C1109      C1116   1.459       .  S
C1110      C1111   1.396       .  A
C1111      C1112   1.413       .  A
C1111      C1114   1.456       .  S
C1112      C1115   1.451       .  S
C1113      N1120   1.158       .  T
C1114      N1119   1.157       .  T
C1115      N1117   1.157       .  T
C1116      N1118   1.158       .  T
C1121      C1122   1.407       .  A
C1121      C1126   1.399       .  A
C1122      C1123   1.409       .  A
C1122      C1127   1.453       .  S
C1123      C1124   1.441       .  A
C1123      C1130   1.457       .  S
C1124      C1125   1.455       .  A
C1125      C1126   1.418       .  A
C1125      C1128   1.451       .  S
C1126      C1129   1.457       .  S
C1127      N1134   1.157       .  T
C1128      N1133   1.158       .  T
C1129      N1131   1.157       .  T
C1130      N1132   1.158       .  T
C1135      C1136   1.404       .  A
C1135      C1140   1.405       .  A
C1136      C1137   1.414       .  A
C1136      C1141   1.452       .  S
C1137      C1138   1.432       .  A
C1137      C1144   1.449       .  S
C1138      C1139   1.448       .  A
C1139      C1140   1.422       .  A
C1139      C1142   1.452       .  S
C1140      C1143   1.453       .  S
C1141      N1148   1.157       .  T
C1142      N1147   1.158       .  T
C1143      N1145   1.157       .  T
C1144      N1146   1.158       .  T
C1149      C1150   1.407       .  A
C1149      C1154   1.411       .  A
C1150      C1151   1.414       .  A
C1150      C1155   1.463       .  S
C1151      C1152   1.454       .  A
C1151      C1158   1.453       .  S
C1152      C1153   1.443       .  A
C1153      C1154   1.425       .  A
C1153      C1156   1.448       .  S
C1154      C1157   1.453       .  S
C1155      N1162   1.158       .  T
C1156      N1161   1.157       .  T
C1157      N1159   1.158       .  T
C1158      N1160   1.158       .  T
C1163      C1164   1.402       .  A
C1163      C1168   1.405   1_554  A
C1164      C1165   1.408       .  A
C1164      C1169   1.456       .  S
C1165      C1166   1.439   1_554  A
C1165      C1172   1.450       .  S
C1166      C1167   1.439       .  A
C1167      C1168   1.410       .  A
C1167      C1170   1.450       .  S
C1168      C1171   1.455       .  S
C1169      N1176   1.157       .  T
C1170      N1175   1.157       .  T
C1171      N1173   1.157       .  T
C1172      N1174   1.158       .  T
C1177      C1178   1.402       .  A
C1177      C1182   1.396   1_556  A
C1178      C1179   1.416       .  A
C1178      C1183   1.457       .  S
C1179      C1180   1.446       .  A
C1179      C1186   1.450       .  S
C1180      C1181   1.453   1_556  A
C1181      C1182   1.405       .  A
C1181      C1184   1.456       .  S
C1182      C1185   1.458       .  S
C1183      N1190   1.157       .  T
C1184      N1189   1.158       .  T
C1185      N1187   1.157       .  T
C1186      N1188   1.158       .  T
C1191      C1192   1.417       .  A
C1191      C1196   1.417       .  A
C1192      C1193   1.418       .  A
C1192      C1197   1.455       .  S
C1193      C1194   1.435       .  A
C1193      C1200   1.449       .  S
C1194      C1195   1.435       .  A
C1195      C1196   1.404       .  A
C1195      C1198   1.454       .  S
C1196      C1199   1.457       .  S
C1197      N1204   1.158       .  T
C1198      N1203   1.158       .  T
C1199      N1201   1.158       .  T
C1200      N1202   1.157       .  T
C1205      C1206   1.396       .  A
C1205      C1210   1.393       .  A
C1206      C1207   1.417       .  A
C1206      C1211   1.458       .  S
C1207      C1208   1.449       .  A
C1207      C1214   1.445       .  S
C1208      C1209   1.465       .  A
C1209      C1210   1.419       .  A
C1209      C1212   1.454       .  S
C1210      C1213   1.458       .  S
C1211      N1218   1.157       .  T
C1212      N1217   1.158       .  T
C1213      N1215   1.157       .  T
C1214      N1216   1.158       .  T
C1219      C1220   1.416       .  A
C1219      C1224   1.415   1_545  A
C1220      C1221   1.416       .  A
C1220      C1225   1.457       .  S
C1221      C1222   1.436       .  A
C1221      C1228   1.448       .  S
C1222      C1223   1.435   1_545  A
C1223      C1224   1.412       .  A
C1223      C1226   1.448       .  S
C1224      C1227   1.456       .  S
C1225      N1232   1.158       .  T
C1226      N1231   1.158       .  T
C1227      N1229   1.158       .  T
C1228      N1230   1.157       .  T
C1233      C1234   1.451       .  A
C1233      C1238   1.441       .  A
C1234      C1235   1.420       .  A
C1234      C1239   1.451   1_545  S
C1235      C1236   1.414       .  A
C1235      C1242   1.461       .  S
C1236      C1237   1.416       .  A
C1237      C1238   1.423       .  A
C1237      C1240   1.456       .  S
C1238      C1241   1.450       .  S
C1239      N1246   1.158       .  T
C1240      N1245   1.158       .  T
C1241      N1243   1.157       .  T
C1242      N1244   1.158       .  T
C1247      C1248   1.446       .  A
C1247      C1252   1.447       .  A
C1248      C1249   1.422       .  A
C1248      C1253   1.451       .  S
C1249      C1250   1.411       .  A
C1249      C1256   1.453       .  S
C1250      C1251   1.409       .  A
C1251      C1252   1.417       .  A
C1251      C1254   1.457       .  S
C1252      C1255   1.451       .  S
C1253      N1260   1.158       .  T
C1254      N1259   1.157       .  T
C1255      N1257   1.157       .  T
C1256      N1258   1.156       .  T
C1261      C1262   1.446       .  A
C1261      C1266   1.450       .  A
C1262      C1263   1.418       .  A
C1262      C1267   1.447       .  S
C1263      C1264   1.403       .  A
C1263      C1270   1.456       .  S
C1264      C1265   1.397       .  A
C1265      C1266   1.413       .  A
C1265      C1268   1.455       .  S
C1266      C1269   1.452       .  S
C1267      N1274   1.157       .  T
C1268      N1273   1.157       .  T
C1269      N1271   1.158       .  T
C1270      N1272   1.157       .  T
C1275      C1276   1.440       .  A
C1275      C1280   1.445       .  A
C1276      C1277   1.428       .  A
C1276      C1281   1.449       .  S
C1277      C1278   1.421       .  A
C1277      C1284   1.454       .  S
C1278      C1279   1.418       .  A
C1279      C1280   1.417       .  A
C1279      C1282   1.457       .  S
C1280      C1283   1.454       .  S
C1281      N1288   1.157       .  T
C1282      N1287   1.158       .  T
C1283      N1285   1.158       .  T
C1284      N1286   1.158       .  T
C1289      C1290   1.395       .  A
C1289      C1294   1.399       .  A
C1290      C1291   1.411       .  A
C1290      C1295   1.457       .  S
C1291      C1292   1.454       .  A
C1291      C1298   1.454       .  S
C1292      C1293   1.453       .  A
C1293      C1294   1.415       .  A
C1293      C1296   1.450       .  S
C1294      C1297   1.460       .  S
C1295      N1302   1.157       .  T
C1296      N1301   1.159       .  T
C1297      N1299   1.158       .  T
C1298      N1300   1.158       .  T
C1303      C1304   1.396       .  A
C1303      C1308   1.399       .  A
C1304      C1305   1.411       .  A
C1304      C1309   1.458       .  S
C1305      C1306   1.450       .  A
C1305      C1312   1.449       .  S
C1306      C1307   1.451       .  A
C1307      C1308   1.417       .  A
C1307      C1310   1.448       .  S
C1308      C1311   1.456       .  S
C1309      N1316   1.157       .  T
C1310      N1315   1.158       .  T
C1311      N1313   1.157       .  T
C1312      N1314   1.157       .  T
C1317      C1318   1.399   1_554  A
C1317      C1322   1.416       .  A
C1318      C1319   1.383       .  A
C1318      C1323   1.452       .  S
C1319      C1320   1.426   1_556  A
C1319      C1326   1.450   1_556  S
C1320      C1321   1.447       .  A
C1321      C1322   1.432       .  A
C1321      C1324   1.452       .  S
C1322      C1325   1.451       .  S
C1323      N1330   1.157       .  T
C1324      N1329   1.158       .  T
C1325      N1327   1.157       .  T
C1326      N1328   1.158       .  T
C1331      C1332   1.401       .  A
C1331      C1336   1.400   1_554  A
C1332      C1333   1.414       .  A
C1332      C1337   1.456       .  S
C1333      C1334   1.450   1_554  A
C1333      C1340   1.454       .  S
C1334      C1335   1.453       .  A
C1335      C1336   1.417       .  A
C1335      C1338   1.450       .  S
C1336      C1339   1.458       .  S
C1337      N1344   1.157       .  T
C1338      N1343   1.158       .  T
C1339      N1341   1.157       .  T
C1340      N1342   1.158       .  T
C1345      C1346   1.440       .  A
C1345      C1350   1.452       .  A
C1346      C1347   1.408       .  A
C1346      C1351   1.445       .  S
C1347      C1348   1.397       .  A
C1347      C1354   1.454       .  S
C1348      C1349   1.403       .  A
C1349      C1350   1.418       .  A
C1349      C1352   1.456       .  S
C1350      C1353   1.451       .  S
C1351      N1358   1.158       .  T
C1352      N1357   1.157       .  T
C1353      N1355   1.158       .  T
C1354      N1356   1.157       .  T
C1359      C1360   1.447       .  A
C1359      C1364   1.429       .  A
C1360      C1361   1.428       .  A
C1360      C1365   1.453       .  S
C1361      C1362   1.421       .  A
C1361      C1368   1.450       .  S
C1362      C1363   1.398       .  A
C1363      C1364   1.400       .  A
C1363      C1366   1.445       .  S
C1364      C1367   1.449       .  S
C1365      N1372   1.158       .  T
C1366      N1371   1.157       .  T
C1367      N1369   1.158       .  T
C1368      N1370   1.157       .  T
C1373      C1374   1.440       .  A
C1373      C1378   1.449       .  A
C1374      C1375   1.397       .  A
C1374      C1379   1.450       .  S
C1375      C1376   1.397       .  A
C1375      C1382   1.447       .  S
C1376      C1377   1.406       .  A
C1377      C1378   1.421       .  A
C1377      C1380   1.452       .  S
C1378      C1381   1.450       .  S
C1379      N1386   1.158       .  T
C1380      N1385   1.157       .  T
C1381      N1383   1.157       .  T
C1382      N1384   1.156       .  T
C1387      C1388   1.443       .  A
C1387      C1392   1.445       .  A
C1388      C1389   1.417       .  A
C1388      C1393   1.452       .  S
C1389      C1390   1.411       .  A
C1389      C1396   1.453       .  S
C1390      C1391   1.402       .  A
C1391      C1392   1.400       .  A
C1391      C1394   1.455       .  S
C1392      C1395   1.453       .  S
C1393      N1400   1.157       .  T
C1394      N1399   1.157       .  T
C1395      N1397   1.158       .  T
C1396      N1398   1.157       .  T
C1401      C1402   1.425       .  A
C1401      C1406   1.418       .  A
C1402      C1403   1.427       .  A
C1402      C1407   1.451       .  S
C1403      C1404   1.436       .  A
C1403      C1410   1.454       .  S
C1404      C1405   1.439       .  A
C1405      C1406   1.409       .  A
C1405      C1408   1.453       .  S
C1406      C1409   1.458       .  S
C1407      N1414   1.158       .  T
C1408      N1413   1.157       .  T
C1409      N1411   1.158       .  T
C1410      N1412   1.158       .  T
C1415      C1416   1.400       .  A
C1415      C1420   1.404   1_455  A
C1416      C1417   1.407       .  A
C1416      C1421   1.457       .  S
C1417      C1418   1.449       .  A
C1417      C1424   1.448       .  S
C1418      C1419   1.440   1_455  A
C1419      C1420   1.408       .  A
C1419      C1422   1.447       .  S
C1420      C1423   1.447       .  S
C1421      N1428   1.158       .  T
C1422      N1427   1.158       .  T
C1423      N1425   1.157       .  T
C1424      N1426   1.158       .  T
C1429      C1430   1.449   1_455  A
C1429      C1434   1.452       .  A
C1430      C1431   1.417       .  A
C1430      C1435   1.449       .  S
C1431      C1432   1.401       .  A
C1431      C1438   1.458       .  S
C1432      C1433   1.395   1_655  A
C1433      C1434   1.406       .  A
C1433      C1436   1.458       .  S
C1434      C1437   1.454       .  S
C1435      N1442   1.158       .  T
C1436      N1441   1.157       .  T
C1437      N1439   1.158       .  T
C1438      N1440   1.158       .  T
C1443      C1444   1.405       .  A
C1443      C1448   1.398       .  A
C1444      C1445   1.420       .  A
C1444      C1449   1.457       .  S
C1445      C1446   1.448       .  A
C1445      C1452   1.449       .  S
C1446      C1447   1.447       .  A
C1447      C1448   1.404       .  A
C1447      C1450   1.457       .  S
C1448      C1451   1.448       .  S
C1449      N1456   1.158       .  T
C1450      N1455   1.158       .  T
C1451      N1453   1.154       .  T
C1452      N1454   1.158       .  T
C1457      C1458   1.447   1_455  A
C1457      C1462   1.446       .  A
C1458      C1459   1.407       .  A
C1458      C1463   1.449       .  S
C1459      C1460   1.390   1_655  A
C1459      C1466   1.453       .  S
C1460      C1461   1.402       .  A
C1461      C1462   1.422       .  A
C1461      C1464   1.454       .  S
C1462      C1465   1.448       .  S
C1463      N1470   1.157       .  T
C1464      N1469   1.157       .  T
C1465      N1467   1.158       .  T
C1466      N1468   1.156       .  T
C1471      C1472   1.411       .  A
C1471      C1476   1.425       .  A
C1472      C1473   1.407       .  A
C1472      C1477   1.458       .  S
C1473      C1474   1.441       .  A
C1473      C1480   1.453       .  S
C1474      C1475   1.431       .  A
C1475      C1476   1.423       .  A
C1475      C1478   1.455       .  S
C1476      C1479   1.451   1_455  S
C1477      N1484   1.158       .  T
C1478      N1483   1.158   1_455  T
C1479      N1481   1.158       .  T
C1480      N1482   1.157       .  T
C1485      C1486   1.406       .  A
C1485      C1490   1.410       .  A
C1486      C1487   1.413       .  A
C1486      C1491   1.454       .  S
C1487      C1488   1.448       .  A
C1487      C1494   1.452       .  S
C1488      C1489   1.446       .  A
C1489      C1490   1.418       .  A
C1489      C1492   1.452       .  S
C1490      C1493   1.454       .  S
C1491      N1498   1.157       .  T
C1492      N1497   1.157       .  T
C1493      N1495   1.157       .  T
C1494      N1496   1.158       .  T
C1499      C1500   1.450       .  A
C1499      C1504   1.447       .  A
C1500      C1501   1.414       .  A
C1500      C1505   1.451       .  S
C1501      C1502   1.406       .  A
C1501      C1508   1.455       .  S
C1502      C1503   1.411       .  A
C1503      C1504   1.422       .  A
C1503      C1506   1.454       .  S
C1504      C1507   1.452       .  S
C1505      N1512   1.158       .  T
C1506      N1511   1.157       .  T
C1507      N1509   1.157       .  T
C1508      N1510   1.158       .  T
C1513      C1514   1.451       .  A
C1513      C1518   1.445       .  A
C1514      C1515   1.414       .  A
C1514      C1519   1.454       .  S
C1515      C1516   1.403       .  A
C1515      C1522   1.456       .  S
C1516      C1517   1.409       .  A
C1517      C1518   1.419       .  A
C1517      C1520   1.455       .  S
C1518      C1521   1.449       .  S
C1519      N1526   1.158       .  T
C1520      N1525   1.158       .  T
C1521      N1523   1.158       .  T
C1522      N1524   1.157       .  T
C1527      C1528   1.398       .  A
C1527      C1532   1.402       .  A
C1528      C1529   1.411       .  A
C1528      C1533   1.456       .  S
C1529      C1530   1.452       .  A
C1529      C1536   1.455       .  S
C1530      C1531   1.450       .  A
C1531      C1532   1.419       .  A
C1531      C1534   1.448       .  S
C1532      C1535   1.459       .  S
C1533      N1540   1.157       .  T
C1534      N1539   1.158       .  T
C1535      N1537   1.158       .  T
C1536      N1538   1.158       .  T
C1541      C1542   1.403       .  A
C1541      C1546   1.400       .  A
C1542      C1543   1.419       .  A
C1542      C1547   1.458       .  S
C1543      C1544   1.450       .  A
C1543      C1550   1.450       .  S
C1544      C1545   1.451       .  A
C1545      C1546   1.414       .  A
C1545      C1548   1.455       .  S
C1546      C1549   1.456       .  S
C1547      N1554   1.158       .  T
C1548      N1553   1.158       .  T
C1549      N1551   1.157       .  T
C1550      N1552   1.158       .  T
C1555      C1556   1.402       .  A
C1555      C1560   1.400   1_554  A
C1556      C1557   1.420       .  A
C1556      C1561   1.458       .  S
C1557      C1558   1.452       .  A
C1557      C1564   1.450       .  S
C1558      C1559   1.451   1_554  A
C1559      C1560   1.416       .  A
C1559      C1562   1.453       .  S
C1560      C1563   1.456       .  S
C1561      N1568   1.158       .  T
C1562      N1567   1.158       .  T
C1563      N1565   1.157       .  T
C1564      N1566   1.158       .  T
C1569      C1570   1.400   1_554  A
C1569      C1574   1.395       .  A
C1570      C1571   1.424       .  A
C1570      C1575   1.458       .  S
C1571      C1572   1.461   1_556  A
C1571      C1578   1.452       .  S
C1572      C1573   1.442       .  A
C1573      C1574   1.406       .  A
C1573      C1576   1.448       .  S
C1574      C1577   1.455       .  S
C1575      N1582   1.158       .  T
C1576      N1581   1.158       .  T
C1577      N1579   1.157       .  T
C1578      N1580   1.158       .  T
C1583      C1584   1.433       .  A
C1583      C1588   1.448       .  A
C1584      C1585   1.402       .  A
C1584      C1589   1.447       .  S
C1585      C1586   1.409       .  A
C1585      C1592   1.444       .  S
C1586      C1587   1.416       .  A
C1587      C1588   1.425       .  A
C1587      C1590   1.455       .  S
C1588      C1591   1.451       .  S
C1589      N1596   1.158       .  T
C1590      N1595   1.158       .  T
C1591      N1593   1.157       .  T
C1592      N1594   1.158       .  T
C1597      C1598   1.451       .  A
C1597      C1602   1.452       .  A
C1598      C1599   1.421       .  A
C1598      C1603   1.448       .  S
C1599      C1600   1.397       .  A
C1599      C1606   1.453       .  S
C1600      C1601   1.398       .  A
C1601      C1602   1.413       .  A
C1601      C1604   1.459       .  S
C1602      C1605   1.449       .  S
C1603      N1610   1.157       .  T
C1604      N1609   1.157       .  T
C1605      N1607   1.158       .  T
C1606      N1608   1.157       .  T
C1611      C1612   1.416       .  A
C1611      C1616   1.399       .  A
C1612      C1613   1.426       .  A
C1612      C1617   1.451       .  S
C1613      C1614   1.442       .  A
C1613      C1620   1.450       .  S
C1614      C1615   1.444       .  A
C1615      C1616   1.394       .  A
C1615      C1618   1.448       .  S
C1616      C1619   1.456       .  S
C1617      N1624   1.157       .  T
C1618      N1623   1.157       .  T
C1619      N1621   1.157       .  T
C1620      N1622   1.157       .  T
C1625      C1626   1.393       .  A
C1625      C1630   1.400       .  A
C1626      C1627   1.407       .  A
C1626      C1631   1.452       .  S
C1627      C1628   1.445       .  A
C1627      C1634   1.450       .  S
C1628      C1629   1.452       .  A
C1629      C1630   1.418       .  A
C1629      C1632   1.449       .  S
C1630      C1633   1.457       .  S
C1631      N1638   1.156       .  T
C1632      N1637   1.158       .  T
C1633      N1635   1.157       .  T
C1634      N1636   1.157       .  T
C1639      C1640   1.441       .  A
C1639      C1644   1.440   1_556  A
C1640      C1641   1.407       .  A
C1640      C1645   1.457       .  S
C1641      C1642   1.406       .  A
C1641      C1648   1.455       .  S
C1642      C1643   1.415   1_556  A
C1643      C1644   1.417       .  A
C1643      C1646   1.455       .  S
C1644      C1647   1.454       .  S
C1645      N1652   1.158       .  T
C1646      N1651   1.158       .  T
C1647      N1649   1.158       .  T
C1648      N1650   1.158       .  T
C1653      C1654   1.399       .  A
C1653      C1658   1.407   1_556  A
C1654      C1655   1.412       .  A
C1654      C1659   1.456       .  S
C1655      C1656   1.452       .  A
C1655      C1662   1.454       .  S
C1656      C1657   1.446   1_556  A
C1657      C1658   1.421       .  A
C1657      C1660   1.449       .  S
C1658      C1661   1.456       .  S
C1659      N1666   1.158       .  T
C1660      N1665   1.158       .  T
C1661      N1663   1.157       .  T
C1662      N1664   1.158       .  T
C1667      C1668   1.402       .  A
C1667      C1672   1.400       .  A
C1668      C1669   1.417       .  A
C1668      C1673   1.453       .  S
C1669      C1670   1.447       .  A
C1669      C1676   1.451       .  S
C1670      C1671   1.430       .  A
C1671      C1672   1.397       .  A
C1671      C1674   1.450       .  S
C1672      C1675   1.445       .  S
C1673      N1680   1.157       .  T
C1674      N1679   1.158       .  T
C1675      N1677   1.156       .  T
C1676      N1678   1.157       .  T
