geometry optimzed in LAMMPS
_audit_creation_date              2020-11-30 
_audit_creation_method            'lammps2cif' 
_symmetry_space_group_name_H-M    'P1' 
_symmetry_Int_Tables_number       1 
_symmetry_cell_setting            triclinic 
loop_ 
_symmetry_equiv_pos_as_xyz 
  x,y,z 
_cell_length_a                    40.02468282 
_cell_length_b                    37.444196001370045 
_cell_length_c                    38.24630008905228 
_cell_angle_alpha                 90.18360130774175 
_cell_angle_beta                  89.44478504707415 
_cell_angle_gamma                 89.70977830314634 
loop_ 
_atom_site_label 
_atom_site_type_symbol 
_atom_site_fract_x 
_atom_site_fract_y 
_atom_site_fract_z 
_atom_site_charge 
O1          O  0.56654518  0.46461338  0.53437657    -0.81100
O2          O  0.45971116  0.52879460  0.42900118    -0.65800
O3          O  0.52114216  0.51329031  0.50599605    -1.12400
C4          C  0.42757668  0.45217837  0.54867068     1.05700
O5          O  0.41639661  0.54084165  0.46378143    -0.79000
O6          O  0.44032719  0.55402232  0.53088414    -0.66600
Ni7        Ni  0.56388997  0.49330055  0.49310430     1.34900
C8          C  0.46039773  0.55257498  0.55679370     0.84500
O9          O  0.52322113  0.55768557  0.44800101    -0.79600
O10         O  0.56811039  0.52409813  0.45312781    -0.89900
C11         C  0.42853686  0.53581382  0.43329905     0.84000
O12         O  0.54646566  0.45254129  0.46588685    -0.68100
O13         O  0.41679986  0.48413602  0.54675055    -0.87400
C14         C  0.52571143  0.45255378  0.44050397     0.84900
C15         C  0.55517264  0.55507709  0.44979134     1.06400
H16         H  0.45832260  0.46931796  0.47960432     0.38200
O17         O  0.46229271  0.49128019  0.49230174    -1.10000
O18         O  0.47677341  0.52346938  0.56224457    -0.66700
Ni19       Ni  0.49156096  0.48251115  0.53167497     1.26300
O20         O  0.50715924  0.48045351  0.43585864    -0.66900
O21         O  0.45938237  0.44740766  0.55043956    -0.79200
C22         C  0.55546150  0.47098154  0.56505783     0.84300
O23         O  0.52395241  0.47585721  0.56988278    -0.66400
Ni24       Ni  0.42031424  0.51330513  0.50576989     1.27400
Ni25       Ni  0.49198656  0.52173410  0.46668165     1.26100
H26         H  0.52450234  0.53533966  0.51863413     0.38800
O27         O  0.55575195  0.30212174  0.22048376    -0.81100
O28         O  0.46484800  0.21564352  0.32425858    -0.65800
O29         O  0.52135627  0.24420018  0.24535609    -1.12400
C30         C  0.41982504  0.30591447  0.21329640     1.05700
O31         O  0.42503042  0.20045202  0.28783813    -0.79000
O32         O  0.43497027  0.20496709  0.21439811    -0.66600
Ni33       Ni  0.56294161  0.26743633  0.25578626     1.34900
C34         C  0.45683246  0.20859702  0.18962965     0.84500
O35         O  0.53255107  0.19696897  0.30129258    -0.79600
O36         O  0.57666628  0.23127313  0.28890495    -0.89900
C37         C  0.43449520  0.20578955  0.31932667     0.84000
O38         O  0.54472475  0.30171341  0.29023192    -0.68100
O39         O  0.40624029  0.27675797  0.22328863    -0.87400
C40         C  0.52308590  0.29913695  0.31496574     0.84900
C41         C  0.56471182  0.20092890  0.29749167     1.06400
H42         H  0.45699477  0.27981807  0.27822461     0.38200
O43         O  0.46150223  0.25914762  0.26371330    -1.10000
O44         O  0.47608033  0.23569786  0.18989642    -0.66700
Ni45       Ni  0.48756560  0.27414843  0.22355771     1.26300
O46         O  0.50611134  0.27021403  0.31810818    -0.66900
O47         O  0.45186943  0.30784312  0.20838085    -0.79200
C48         C  0.54764933  0.29374234  0.18956435     0.84300
O49         O  0.51715257  0.28611890  0.18418102    -0.66400
Ni50       Ni  0.41938212  0.23731453  0.25315928     1.27400
Ni51       Ni  0.49541657  0.22954978  0.28567794     1.26100
H52         H  0.52595678  0.22356448  0.23081992     0.38800
C53         C  0.77124532  0.78432679  0.73044679     0.80000
N54         N  0.74151845  0.79400881  0.74480739    -0.78300
C55         C  0.73273478  0.78167705  0.77688569     0.82400
N56         N  0.75434813  0.76094033  0.79488952    -0.78300
C57         C  0.78442412  0.75216961  0.78098384     0.82500
N58         N  0.79265259  0.76363769  0.74863241    -0.80000
C59         C  0.75938409  0.02135731  0.00343649     0.80000
N60         N  0.73553020  0.00533240  0.98402295    -0.78300
C61         C  0.72420417  0.97228552  0.99248563     0.82400
N62         N  0.73796094  0.95484390  0.01999516    -0.78300
C63         C  0.76198180  0.97060712  0.03943104     0.82500
N64         N  0.77208980  0.00385477  0.03107243    -0.80000
C65         C  0.01625428  0.69484645  0.99827899     0.80000
N66         N  0.04279381  0.71310768  0.98630494    -0.78300
C67         C  0.05128132  0.74483293  0.00030839     0.82400
N68         N  0.03259480  0.75829300  0.02728532    -0.78300
C69         C  0.00608127  0.73957389  0.04023296     0.82500
N70         N  0.99817268  0.70800996  0.02536300    -0.80000
C71         C  0.98548068  0.00255344  0.78329886     0.80000
N72         N  0.01318991  0.98706662  0.79630289    -0.78300
C73         C  0.03071565  0.96311161  0.77690465     0.82400
N74         N  0.02045457  0.95408651  0.74453872    -0.78300
C75         C  0.99285026  0.96972831  0.73106951     0.82500
N76         N  0.97543072  0.99357479  0.75079539    -0.80000
O77         O  0.14619170  0.91367799  0.87902401    -0.74700
O78         O  0.21518708  0.86936445  0.93426025    -0.74700
O79         O  0.21094631  0.92060972  0.87375354    -0.74800
O80         O  0.14944214  0.86774565  0.93278670    -0.74800
O81         O  0.15178626  0.82305135  0.89427666    -0.74800
O82         O  0.21507535  0.87489635  0.83714046    -0.74700
O83         O  0.21680901  0.82366614  0.89751038    -0.74700
O84         O  0.14963547  0.86848010  0.84087380    -0.74800
Ni85       Ni  0.18137526  0.89460369  0.90634184     1.25400
Ni86       Ni  0.18442706  0.84597521  0.86605897     1.25400
C87         C  0.13631323  0.89770134  0.85145415     0.87500
C88         C  0.21970235  0.83549658  0.92914047     0.87400
C89         C  0.21603453  0.90905735  0.84215097     0.87500
C90         C  0.13999550  0.83689424  0.92249119     0.87600
O91         O  0.92382759  0.84897674  0.13903886    -0.74700
O92         O  0.87458746  0.90374140  0.20683209    -0.74700
O93         O  0.92591303  0.84552909  0.20699211    -0.74800
O94         O  0.87610690  0.90000319  0.13863485    -0.74800
O95         O  0.83881183  0.85620509  0.13645559    -0.74800
O96         O  0.88418350  0.80726571  0.21120593    -0.74700
O97         O  0.83209471  0.86648927  0.20355493    -0.74700
O98         O  0.88702925  0.80475160  0.14225516    -0.74800
Ni99       Ni  0.90145350  0.87602992  0.17369050     1.25400
Ni100      Ni  0.85897692  0.83206047  0.17432892     1.25400
C101        C  0.91491980  0.81745778  0.13093209     0.87500
C102        C  0.84271542  0.89884978  0.20863396     0.87400
C103        C  0.91584384  0.81346007  0.21390783     0.87500
C104        C  0.84899742  0.88687863  0.12664513     0.87600
O105        O  0.92791553  0.86889082  0.61296190    -0.74700
O106        O  0.87341104  0.82179087  0.54417883    -0.74700
O107        O  0.93463386  0.86781570  0.54507571    -0.74800
O108        O  0.87230953  0.82802883  0.61226998    -0.74800
O109        O  0.84084377  0.87709548  0.60814275    -0.74800
O110        O  0.90253423  0.91587760  0.54131445    -0.74700
O111        O  0.84266016  0.87098232  0.54009927    -0.74700
O112        O  0.89617219  0.91766843  0.60896125    -0.74800
Ni113      Ni  0.90331239  0.84468606  0.57786528     1.25400
Ni114      Ni  0.86943396  0.89704491  0.57367346     1.25400
C115        C  0.92134557  0.90118605  0.62165431     0.87500
C116        C  0.84499568  0.83666654  0.53761033     0.87400
C117        C  0.93203823  0.90198472  0.54072634     0.87500
C118        C  0.84640379  0.84632780  0.62108716     0.87600
O119        O  0.88054424  0.62525094  0.83715384    -0.74700
O120        O  0.91825529  0.54572584  0.88545813    -0.74700
O121        O  0.86457029  0.55709328  0.83673238    -0.74800
O122        O  0.92943011  0.61423596  0.88322838    -0.74800
O123        O  0.89370373  0.62173270  0.92786596    -0.74800
O124        O  0.82798588  0.56664601  0.87998278    -0.74700
O125        O  0.88066415  0.55347420  0.92801723    -0.74700
O126        O  0.84495500  0.63489499  0.88146600    -0.74800
Ni127      Ni  0.89927744  0.58456523  0.85891060     1.25400
Ni128      Ni  0.86032218  0.59396062  0.90589470     1.25400
C129        C  0.85698506  0.64332510  0.85148986     0.87500
C130        C  0.90975344  0.54278986  0.91773615     0.87400
C131        C  0.83416392  0.55817618  0.84811209     0.87500
C132        C  0.92233605  0.62614384  0.91363448     0.87600
O133        O  0.61008535  0.92088157  0.88090988    -0.74700
O134        O  0.54270461  0.86948524  0.82829746    -0.74700
O135        O  0.54525021  0.92838980  0.88424380    -0.74800
O136        O  0.60776363  0.86954585  0.83169316    -0.74800
O137        O  0.60479300  0.82820085  0.87352132    -0.74800
O138        O  0.54146820  0.88731158  0.92539375    -0.74700
O139        O  0.53889463  0.82891947  0.86993792    -0.74700
O140        O  0.60676777  0.87939709  0.92241891    -0.74800
Ni141      Ni  0.57533827  0.89863780  0.85474285     1.25400
Ni142      Ni  0.57179923  0.85450602  0.89927048     1.25400
C143        C  0.61995379  0.90780313  0.90993735     0.87500
C144        C  0.53671788  0.83658594  0.83698942     0.87400
C145        C  0.54068831  0.92084631  0.91702321     0.87500
C146        C  0.61752209  0.84015659  0.84511098     0.87600
O147        O  0.86940159  0.12936787  0.93592086    -0.74700
O148        O  0.92149964  0.18865705  0.87338099    -0.74700
O149        O  0.87036873  0.19871595  0.92818018    -0.74800
O150        O  0.91669451  0.11932141  0.88594359    -0.74800
O151        O  0.87702590  0.11488192  0.84583804    -0.74800
O152        O  0.83151243  0.19442038  0.88735550    -0.74700
O153        O  0.88127285  0.18435167  0.83399351    -0.74700
O154        O  0.82978832  0.12507185  0.89565366    -0.74800
Ni155      Ni  0.89604462  0.15988088  0.90710218     1.25400
Ni156      Ni  0.85359796  0.15511661  0.86413684     1.25400
C157        C  0.84085820  0.11804522  0.92613907     0.87500
C158        C  0.91178488  0.19156757  0.84143219     0.87400
C159        C  0.83993951  0.20318112  0.91858089     0.87500
C160        C  0.90433291  0.10388127  0.85917607     0.87600
O161        O  0.27345548  0.53922201  0.31815617    -0.81100
O162        O  0.16745545  0.45481686  0.23173001    -0.65800
O163        O  0.24591646  0.48234279  0.28392275    -1.12400
C164        C  0.26970969  0.54503705  0.17522185     1.05700
O165        O  0.20256424  0.43871842  0.19051177    -0.79000
O166        O  0.26888991  0.44606946  0.18665006    -0.66600
Ni167      Ni  0.23963949  0.50491595  0.32860384     1.34900
C168        C  0.29206101  0.44562931  0.20945337     0.84500
O169        O  0.19301232  0.43582633  0.29918354    -0.79600
O170        O  0.20907282  0.46832442  0.34530121    -0.89900
C171        C  0.17263068  0.44428768  0.20031085     0.84000
O172        O  0.20510606  0.53968448  0.31425893    -0.68100
O173        O  0.25545739  0.51842584  0.16062040    -0.87400
C174        C  0.17999152  0.53745461  0.29378198     0.84900
C175        C  0.19879983  0.43878884  0.33239724     1.06400
H176        H  0.21098089  0.51956112  0.22090268     0.38200
O177        O  0.22461774  0.49837183  0.22340283    -1.10000
O178        O  0.29365418  0.47061911  0.23214958    -0.66700
Ni179      Ni  0.26499514  0.51142924  0.24680498     1.26300
O180        O  0.17603828  0.50908507  0.27525510    -0.66900
O181        O  0.27830343  0.54411556  0.20795899    -0.79200
C182        C  0.30224979  0.53060032  0.30629502     0.84300
O183        O  0.30479717  0.52211742  0.27407442    -0.66400
Ni184      Ni  0.23037344  0.47752049  0.17772343     1.27400
Ni185      Ni  0.20584043  0.46851390  0.26025543     1.26100
H186        H  0.25960063  0.46131236  0.28724401     0.38800
O187        O  0.31366616  0.28290192  0.55010838    -0.81100
O188        O  0.21571284  0.16562412  0.48401378    -0.65800
O189        O  0.27336225  0.24968236  0.50017596    -1.12400
C190        C  0.17534394  0.28733525  0.56458515     1.05700
O191        O  0.17688501  0.20288711  0.46789720    -0.79000
O192        O  0.18079476  0.27544374  0.46810883    -0.66600
Ni193      Ni  0.31673745  0.24187883  0.52022947     1.34900
C194        C  0.20263942  0.30019201  0.46541357     0.84500
O195        O  0.28190787  0.18944336  0.45776408    -0.79600
O196        O  0.32687182  0.20297734  0.48887191    -0.89900
C197        C  0.18485571  0.17105292  0.47565434     0.84000
O198        O  0.30207369  0.21071266  0.55884238    -0.68100
O199        O  0.15986427  0.27092241  0.54043324    -0.87400
C200        C  0.28258596  0.18360599  0.55907034     0.84900
C201        C  0.31390147  0.19472552  0.45965505     1.06400
H202        H  0.21330903  0.21929716  0.54339834     0.38200
O203        O  0.21537444  0.23185763  0.52145928    -1.10000
O204        O  0.22555397  0.30321941  0.48843192    -0.66700
Ni205      Ni  0.24125238  0.27500322  0.52927790     1.26300
O206        O  0.26355800  0.17780596  0.53257039    -0.66900
O207        O  0.20700544  0.29441044  0.56228199    -0.79200
C208        C  0.30244396  0.31375471  0.54257648     0.84300
O209        O  0.27123688  0.31688081  0.53540205    -0.66400
Ni210      Ni  0.17109551  0.23846857  0.50316818     1.27400
Ni211      Ni  0.24720045  0.20687207  0.49170085     1.26100
H212        H  0.27630999  0.26229683  0.47834651     0.38800
O213        O  0.56916445  0.79897492  0.71090325    -0.81100
O214        O  0.46821018  0.72864429  0.82030806    -0.65800
O215        O  0.53040773  0.74398899  0.74154564    -1.12400
C216        C  0.43310645  0.79411208  0.69575441     1.05700
O217        O  0.42904621  0.70809764  0.78519985    -0.79000
O218        O  0.45140315  0.69549632  0.71668304    -0.66600
Ni219      Ni  0.57231549  0.76739775  0.75065182     1.34900
C220        C  0.47010786  0.69780211  0.68941363     0.84500
O221        O  0.53520740  0.70684563  0.80466261    -0.79600
O222        O  0.58257066  0.73374619  0.78696772    -0.89900
C223        C  0.43833082  0.71697994  0.81577827     0.84000
O224        O  0.55690422  0.80522945  0.78385880    -0.68100
O225        O  0.42347391  0.76219971  0.70052955    -0.87400
C226        C  0.53458225  0.80603074  0.80834056     0.84900
C227        C  0.56727290  0.70779588  0.80141925     1.06400
H228        H  0.46358505  0.78372199  0.76462953     0.38200
O229        O  0.46967243  0.76130610  0.75364841    -1.10000
O230        O  0.48680235  0.72677712  0.68425962    -0.66700
Ni231      Ni  0.49884486  0.76997395  0.71351288     1.26300
O232        O  0.51305225  0.78044278  0.81027415    -0.66900
O233        O  0.46453214  0.80060129  0.69300884    -0.79200
C234        C  0.56153038  0.78902870  0.67996498     0.84300
O235        O  0.53160240  0.77800212  0.67490200    -0.66400
Ni236      Ni  0.42967944  0.73504619  0.74238267     1.27400
Ni237      Ni  0.50137726  0.73637469  0.78206075     1.26100
H238        H  0.53509599  0.72119329  0.73058064     0.38800
O239        O  0.33049576  0.78589512  0.04250870    -0.81100
O240        O  0.21951505  0.68100096  0.97596872    -0.65800
O241        O  0.28207704  0.75935086  0.99506366    -1.12400
C242        C  0.19074287  0.80161405  0.05899376     1.05700
O243        O  0.17270271  0.71342329  0.97814062    -0.79000
O244        O  0.20107990  0.78165486  0.95981426    -0.66600
Ni245      Ni  0.32461007  0.74446109  0.01325688     1.34900
C246        C  0.22049004  0.80899651  0.96049663     0.84500
O247        O  0.28264328  0.70343479  0.94763575    -0.79600
O248        O  0.32571660  0.70421582  0.98243977    -0.89900
C249        C  0.18738810  0.68330267  0.97506370     0.84000
O250        O  0.30540838  0.71669103  0.05203616    -0.68100
O251        O  0.18136583  0.80147233  0.02744745    -0.87400
C252        C  0.28582473  0.68985570  0.04930875     0.84900
C253        C  0.31441490  0.70450415  0.95148890     1.06400
H254        H  0.22097490  0.72948807  0.03949284     0.38200
O255        O  0.22378266  0.74370453  0.01865721    -1.10000
O256        O  0.23726173  0.81558021  0.98850826    -0.66700
Ni257      Ni  0.25363924  0.78394324  0.02753191     1.26300
O258        O  0.26846341  0.68604476  0.02142553    -0.66900
O259        O  0.22238756  0.80205946  0.06409334    -0.79200
C260        C  0.31887866  0.81748717  0.03991877     0.84300
O261        O  0.28727156  0.82235421  0.03484733    -0.66400
Ni262      Ni  0.18093763  0.75828821  0.00113363     1.27400
Ni263      Ni  0.25203335  0.71989361  0.98485803     1.26100
H264        H  0.28565484  0.77355277  0.97425902     0.38800
O265        O  0.05580803  0.44225362  0.04248396    -0.81100
O266        O  0.96554448  0.52595590  0.93886171    -0.65800
O267        O  0.02063494  0.49976390  0.01822847    -1.12400
C268        C  0.92107121  0.43205693  0.04863418     1.05700
O269        O  0.92597142  0.53796495  0.97672945    -0.79000
O270        O  0.92720107  0.53022074  0.04556615    -0.66600
Ni271      Ni  0.06388375  0.47941499  0.00961494     1.34900
C272        C  0.94971819  0.53204664  0.06888649     0.84500
O273        O  0.03128312  0.54814023  0.96222011    -0.79600
O274        O  0.07719417  0.51889411  0.98023432    -0.89900
C275        C  0.93478187  0.53341198  0.94520167     0.84000
O276        O  0.05160535  0.44670881  0.97124908    -0.68100
O277        O  0.90585398  0.45770751  0.03369749    -0.87400
C278        C  0.03051914  0.44874867  0.94626535     0.84900
C279        C  0.06342303  0.54683742  0.96756209     1.06400
H280        H  0.96120957  0.46002597  0.98401840     0.38200
O281        O  0.96285390  0.48111592  0.99851810    -1.10000
O282        O  0.97282349  0.50843222  0.07038329    -0.66700
Ni283      Ni  0.98760016  0.46842601  0.03971319     1.26300
O284        O  0.01020436  0.47519040  0.94483188    -0.66900
O285        O  0.95269925  0.43385527  0.05583830    -0.79200
C286        C  0.04700659  0.44908626  0.07386238     0.84300
O287        O  0.01651880  0.45760344  0.07949891    -0.66400
Ni288      Ni  0.91822140  0.49862023  0.00626258     1.27400
Ni289      Ni  0.99556854  0.51355674  0.97760406     1.26100
H290        H  0.02353284  0.52065296  0.03276702     0.38800
O291        O  0.31596122  0.95810682  0.71198445    -0.81100
O292        O  0.22148229  0.06998481  0.78587249    -0.65800
O293        O  0.28016692  0.98861706  0.76690798    -1.12400
C294        C  0.17884454  0.94506581  0.71358863     1.05700
O295        O  0.18581861  0.03190444  0.80782465    -0.79000
O296        O  0.19271949  0.95943528  0.80983572    -0.66600
Ni297      Ni  0.32232277  0.99699855  0.74387847     1.34900
C298        C  0.21578068  0.93558320  0.81063611     0.84500
O299        O  0.28844871  0.05229525  0.80537717    -0.79600
O300        O  0.33500538  0.03309255  0.77771519    -0.89900
C301        C  0.19222257  0.06359560  0.79806871     0.84000
O302        O  0.30703698  0.03099383  0.70795241    -0.68100
O303        O  0.16457704  0.96030345  0.73976350    -0.87400
C304        C  0.28449386  0.05547719  0.70746012     0.84900
C305        C  0.32061488  0.04825643  0.80384798     1.06400
H306        H  0.21524720  0.01471602  0.72946052     0.38200
O307        O  0.21992427  0.00297402  0.75135786    -1.10000
O308        O  0.23636109  0.93272456  0.78474945    -0.66700
Ni309      Ni  0.24693075  0.96117599  0.74166013     1.26300
O310        O  0.26407493  0.05882929  0.73348006    -0.66900
O311        O  0.21099182  0.93982811  0.71252297    -0.79200
C312        C  0.30811659  0.92659670  0.72144283     0.84300
O313        O  0.27821714  0.92123047  0.73246010    -0.66400
Ni314      Ni  0.17796918  0.99465662  0.77481054     1.27400
Ni315      Ni  0.25302721  0.03043727  0.77648623     1.26100
H316        H  0.28472487  0.97692955  0.78885137     0.38800
O317        O  0.70913866  0.68104397  0.45112905    -0.81100
O318        O  0.81268977  0.78095711  0.52726869    -0.65800
O319        O  0.73408466  0.72272855  0.50604079    -1.12400
C320        C  0.70239580  0.82778077  0.44655219     1.05700
O321        O  0.78531526  0.83232084  0.53373085    -0.79000
O322        O  0.71713276  0.81113892  0.54559189    -0.66600
Ni323      Ni  0.74284816  0.67633577  0.48570450     1.34900
C324        C  0.69047265  0.79222550  0.54285668     0.84500
O325        O  0.78688452  0.71352210  0.55182300    -0.79600
O326        O  0.77494650  0.66433925  0.52114596    -0.89900
C327        C  0.81293545  0.81513215  0.53130738     0.84000
O328        O  0.77533269  0.69223142  0.45067992    -0.68100
O329        O  0.70593937  0.83924524  0.47769309    -0.87400
C330        C  0.79979096  0.71383124  0.45262536     0.84900
C331        C  0.78223406  0.67938431  0.55003583     1.06400
H332        H  0.76724841  0.78764874  0.46581295     0.38200
O333        O  0.75359895  0.78475058  0.48658251    -1.10000
O334        O  0.68478767  0.77509918  0.51432651    -0.66700
Ni335      Ni  0.71393434  0.75705102  0.47537698     1.26300
O336        O  0.80343236  0.73335822  0.47974641    -0.66900
O337        O  0.69998031  0.79382869  0.44154247    -0.79200
C338        C  0.67957822  0.69186769  0.45698425     0.84300
O339        O  0.67539586  0.72491954  0.46552600    -0.66400
Ni340      Ni  0.74434042  0.83098399  0.50689085     1.27400
Ni341      Ni  0.77341112  0.75031821  0.51772876     1.26100
H342        H  0.72038901  0.71971896  0.52676400     0.38800
O343        O  0.96106926  0.69685598  0.33381591    -0.81100
O344        O  0.06395181  0.75903477  0.21742779    -0.65800
O345        O  0.99023110  0.74385173  0.28427966    -1.12400
C346        C  0.94722087  0.68007269  0.18980287     1.05700
O347        O  0.03182618  0.76496387  0.17039883    -0.79000
O348        O  0.96684479  0.78148906  0.19606641    -0.66600
Ni349      Ni  0.00253595  0.72222239  0.32815122     1.34900
C350        C  0.94156461  0.78201009  0.21702463     0.84500
O351        O  0.04653284  0.78592456  0.28564196    -0.79600
O352        O  0.04280191  0.74936087  0.33024775    -0.89900
C353        C  0.06062029  0.76507156  0.18442167     0.84000
O354        O  0.02566553  0.68057755  0.30694811    -0.68100
O355        O  0.95071787  0.71093642  0.17645548    -0.87400
C356        C  0.05138727  0.68146772  0.28662633     0.84900
C357        C  0.04581818  0.78103191  0.31887910     1.06400
H358        H  0.01437927  0.69766406  0.21938156     0.38200
O359        O  0.00276177  0.72013438  0.22261003    -1.10000
O360        O  0.93649227  0.75499153  0.23729899    -0.66700
Ni361      Ni  0.96472918  0.71371942  0.25442063     1.26300
O362        O  0.05671472  0.70986154  0.26825340    -0.66900
O363        O  0.94554667  0.67764841  0.22318597    -0.79200
C364        C  0.93217566  0.70468288  0.32232914     0.84300
O365        O  0.92826661  0.70986755  0.28940253    -0.66400
Ni366      Ni  0.99067087  0.73905571  0.17760145     1.27400
Ni367      Ni  0.02782546  0.75121837  0.25256799     1.26100
H368        H  0.97859075  0.76608137  0.28854374     0.38800
O369        O  0.43945712  0.98249464  0.04003018    -0.81100
O370        O  0.53504916  0.08868234  0.96353030    -0.65800
O371        O  0.47651762  0.00824828  0.98443587    -1.12400
C372        C  0.57657404  0.96934332  0.04260492     1.05700
O373        O  0.57242598  0.05023722  0.94418784    -0.79000
O374        O  0.56287909  0.97601745  0.94407008    -0.66600
Ni375      Ni  0.43341670  0.01802084  0.00534339     1.34900
C376        C  0.54084260  0.95111826  0.94588575     0.84500
O377        O  0.46880973  0.06850000  0.94159374    -0.79600
O378        O  0.42180909  0.05079464  0.96882851    -0.89900
C379        C  0.56498926  0.08232263  0.95283236     0.84000
O380        O  0.44628990  0.05474268  0.03951400    -0.68100
O381        O  0.59094824  0.97945352  0.01432287    -0.87400
C382        C  0.46906020  0.07861911  0.04051066     0.84900
C383        C  0.43686899  0.06263222  0.94174292     1.06400
H384        H  0.54078383  0.03692196  0.02200859     0.38200
O385        O  0.53625906  0.02368269  0.00085557    -1.10000
O386        O  0.52101622  0.95023860  0.97251508    -0.66700
Ni387      Ni  0.50899363  0.98291468  0.01253609     1.26300
O388        O  0.49085148  0.08026115  0.01543198    -0.66900
O389        O  0.54437732  0.96483111  0.04424134    -0.79200
C390        C  0.44679194  0.95052334  0.03181548     0.84300
O391        O  0.47722647  0.94381796  0.02303551    -0.66400
Ni392      Ni  0.57833338  0.01289650  0.97803250     1.27400
Ni393      Ni  0.50353934  0.04950489  0.97362197     1.26100
H394        H  0.47295722  0.99503064  0.96306153     0.38800
C395        C  0.22975306  0.75602679  0.25394874     0.80000
N396        N  0.24353385  0.72303989  0.25542675    -0.78300
C397        C  0.27165615  0.71525185  0.23675392     0.82400
N398        N  0.28642779  0.74111479  0.21759657    -0.78300
C399        C  0.27319860  0.77426770  0.21677639     0.82500
N400        N  0.24503939  0.78176533  0.23496638    -0.80000
O401        O  0.37396280  0.60221396  0.30436995    -0.74700
O402        O  0.41506440  0.54022111  0.37115854    -0.74700
O403        O  0.36247674  0.53522388  0.31794473    -0.74800
O404        O  0.42071166  0.60843507  0.35397958    -0.74800
O405        O  0.38003780  0.62294592  0.39200074    -0.74800
O406        O  0.32588864  0.54781375  0.36030068    -0.74700
O407        O  0.37635074  0.55581736  0.41050494    -0.74700
O408        O  0.33332997  0.61483702  0.34308606    -0.74800
Ni409      Ni  0.39462696  0.57008554  0.33557762     1.25400
Ni410      Ni  0.35257434  0.58534292  0.37801757     1.25400
C411        C  0.34657731  0.61772049  0.31261858     0.87500
C412        C  0.40556597  0.54332531  0.40326644     0.87400
C413        C  0.33198875  0.53635268  0.32939287     0.87500
C414        C  0.40889017  0.62804915  0.37872558     0.87600
C415        C  0.49988796  0.01524748  0.20565002     0.80000
N416        N  0.48902138  0.04040360  0.22849399    -0.78300
C417        C  0.50567865  0.04686649  0.25837154     0.82400
N418        N  0.53369865  0.02827056  0.26542947    -0.78300
C419        C  0.54556424  0.00391284  0.24219073     0.82500
N420        N  0.52820540  0.99661404  0.21286807    -0.80000
O421        O  0.63459031  0.84714095  0.36982772    -0.74700
O422        O  0.70849092  0.89797595  0.32877020    -0.74700
O423        O  0.69857632  0.84428979  0.38475451    -0.74800
O424        O  0.64415283  0.89348063  0.31828778    -0.74800
O425        O  0.63812325  0.93902252  0.35565305    -0.74800
O426        O  0.69063242  0.88770715  0.42363810    -0.74700
O427        O  0.70305229  0.94048669  0.36887215    -0.74700
O428        O  0.62706025  0.89250916  0.40713951    -0.74800
Ni429      Ni  0.67270760  0.86900624  0.34928080     1.25400
Ni430      Ni  0.66523551  0.91653373  0.39042017     1.25400
C431        C  0.61774882  0.86288793  0.39401051     0.87500
C432        C  0.71168562  0.93112511  0.33770534     0.87400
C433        C  0.69747231  0.85460896  0.41689588     0.87500
C434        C  0.63192472  0.92390254  0.32631053     0.87600
O435        O  0.33716994  0.89550788  0.11566972    -0.74700
O436        O  0.38926437  0.93240840  0.03949298    -0.74700
O437        O  0.33492940  0.88076025  0.04844951    -0.74800
O438        O  0.38669844  0.94393482  0.10695319    -0.74800
O439        O  0.42485908  0.90094670  0.11415423    -0.74800
O440        O  0.37407752  0.83909016  0.05464445    -0.74700
O441        O  0.42792002  0.89045533  0.04674853    -0.74700
O442        O  0.37553087  0.85260326  0.12231649    -0.74800
Ni443      Ni  0.36060930  0.91462418  0.07668770     1.25400
Ni444      Ni  0.40184239  0.86901597  0.08412759     1.25400
C445        C  0.34776490  0.86739507  0.13087849     0.87500
C446        C  0.42013932  0.92233222  0.03752018     0.87400
C447        C  0.34364901  0.84760497  0.04718922     0.87500
C448        C  0.41469696  0.93305778  0.11897548     0.87600
C449        C  0.25803487  0.01649684  0.49418608     0.80000
N450        N  0.26132619  0.01479901  0.52910161    -0.78300
C451        C  0.24637070  0.98887157  0.54781614     0.82400
N452        N  0.22710709  0.96470128  0.53085650    -0.78300
C453        C  0.22317881  0.96654333  0.49571382     0.82500
N454        N  0.23936627  0.99219047  0.47750897    -0.80000
C455        C  0.45416662  0.75972059  0.43218348     0.80000
N456        N  0.48026358  0.77787404  0.41891010    -0.78300
C457        C  0.49088795  0.80799475  0.43458755     0.82400
N458        N  0.47561692  0.81975511  0.46414807    -0.78300
C459        C  0.44953118  0.80152551  0.47784703     0.82500
N460        N  0.43892381  0.77139917  0.46187396    -0.80000
O461        O  0.31612885  0.87574319  0.63910664    -0.74700
O462        O  0.37600834  0.81362574  0.68799016    -0.74700
O463        O  0.32373052  0.86523439  0.70568606    -0.74800
O464        O  0.36405721  0.82778446  0.62136293    -0.74800
O465        O  0.40153544  0.87169755  0.62237222    -0.74800
O466        O  0.36371532  0.90577601  0.70811794    -0.74700
O467        O  0.41513126  0.85552600  0.68761810    -0.74700
O468        O  0.35408980  0.91892349  0.64223977    -0.74800
Ni469      Ni  0.34383440  0.84366404  0.66409688     1.25400
Ni470      Ni  0.38517858  0.88933031  0.66570446     1.25400
C471        C  0.32474699  0.90822585  0.63455133     0.87500
C472        C  0.40692978  0.82257052  0.69048655     0.87400
C473        C  0.33316163  0.89691921  0.71389737     0.87500
C474        C  0.38881526  0.84432152  0.60768162     0.87600
O475        O  0.38620192  0.11855495  0.34246204    -0.74700
O476        O  0.32896528  0.17987143  0.39826051    -0.74700
O477        O  0.38007081  0.18814742  0.34259750    -0.74800
O478        O  0.33953239  0.11127446  0.39265284    -0.74800
O479        O  0.37715147  0.11692227  0.43521001    -0.74800
O480        O  0.42160718  0.18947181  0.38056229    -0.74700
O481        O  0.37018268  0.18640064  0.43603883    -0.74700
O482        O  0.42453605  0.11940543  0.38461788    -0.74800
Ni483      Ni  0.35719011  0.15009233  0.36752405     1.25400
Ni484      Ni  0.39977507  0.15393161  0.41062507     1.25400
C485        C  0.41464610  0.10931318  0.35456016     0.87500
C486        C  0.33856970  0.18718875  0.42952813     0.87400
C487        C  0.41086870  0.19520856  0.34936579     0.87500
C488        C  0.35105022  0.10258413  0.42239622     0.87600
O489        O  0.12284198  0.89415068  0.38924992    -0.74700
O490        O  0.05906583  0.84245236  0.33503723    -0.74700
O491        O  0.05674780  0.89611357  0.38935483    -0.74800
O492        O  0.12376265  0.84506196  0.33884105    -0.74800
O493        O  0.12135371  0.80011036  0.37681842    -0.74800
O494        O  0.05887998  0.85677506  0.43259026    -0.74700
O495        O  0.05577404  0.80233145  0.37754811    -0.74700
O496        O  0.12438534  0.84972426  0.42796856    -0.74800
Ni497      Ni  0.08996761  0.87110306  0.36184621     1.25400
Ni498      Ni  0.08933048  0.82565867  0.40535313     1.25400
C499        C  0.13498921  0.87959918  0.41657618     0.87500
C500        C  0.05288378  0.81039489  0.34498659     0.87400
C501        C  0.05172837  0.88848870  0.42175414     0.87500
C502        C  0.13249638  0.81376919  0.34832024     0.87600
O503        O  0.67773838  0.97423316  0.21348049    -0.81100
O504        O  0.78788156  0.03036888  0.32423965    -0.65800
O505        O  0.72963802  0.01312261  0.24356017    -1.12400
C506        C  0.81960249  0.93248364  0.21387358     1.05700
O507        O  0.83368490  0.03190694  0.29131494    -0.79000
O508        O  0.81529206  0.03749894  0.22205359    -0.66600
Ni509      Ni  0.68460742  0.00069730  0.25578354     1.34900
C510        C  0.79556342  0.03666680  0.19585465     0.84500
O511        O  0.72683746  0.06456934  0.29826731    -0.79600
O512        O  0.68310283  0.03074719  0.29667601    -0.89900
C513        C  0.82001229  0.03223544  0.32151808     0.84000
O514        O  0.69968668  0.95880275  0.28206143    -0.68100
O515        O  0.83417067  0.96268834  0.21646504    -0.87400
C516        C  0.71716112  0.96007817  0.30998547     0.84900
C517        C  0.69465820  0.06207611  0.29852756     1.06400
H518        H  0.78508120  0.96504304  0.28008033     0.38200
O519        O  0.78453991  0.98538724  0.26460510    -1.10000
O520        O  0.77727553  0.00908321  0.19082195    -0.66700
Ni521      Ni  0.75701471  0.97437167  0.22425049     1.26300
O522        O  0.73530510  0.98764036  0.31618864    -0.66900
O523        O  0.78721432  0.93261470  0.21177623    -0.79200
C524        C  0.69350587  0.96800398  0.18504998     0.84300
O525        O  0.72581320  0.96538228  0.18452138    -0.66400
Ni526      Ni  0.82969044  0.99863181  0.25301046     1.27400
Ni527      Ni  0.75688213  0.02320057  0.28439700     1.26100
H528        H  0.72944706  0.03353731  0.22817206     0.38800
O529        O  0.78253536  0.20955547  0.93379604    -0.81100
O530        O  0.68031823  0.28456482  0.03354573    -0.65800
O531        O  0.75977139  0.26373035  0.97710478    -1.12400
C532        C  0.78728308  0.18622615  0.07504667     1.05700
O533        O  0.71011843  0.28924604  0.08143523    -0.79000
O534        O  0.77802697  0.28724554  0.07429084    -0.66600
Ni535      Ni  0.75412603  0.25003740  0.92914714     1.34900
C536        C  0.80269057  0.28897131  0.05280302     0.84500
O537        O  0.70713667  0.31449381  0.96944458    -0.79600
O538        O  0.72845854  0.29235208  0.91921915    -0.89900
C539        C  0.68163356  0.28839544  0.06684437     0.84000
O540        O  0.71592911  0.21850536  0.93574778    -0.68100
O541        O  0.77352669  0.21183212  0.09226137    -0.87400
C542        C  0.69184855  0.21713673  0.95784880     0.84900
C543        C  0.71482518  0.31791042  0.93637196     1.06400
H544        H  0.72342379  0.21810134  0.03409755     0.38200
O545        O  0.73762662  0.23887757  0.03469808    -1.10000
O546        O  0.80708026  0.26503066  0.02914203    -0.66700
Ni547      Ni  0.77818731  0.22783880  0.00833672     1.26300
O548        O  0.68970262  0.23953554  0.98295220    -0.66900
O549        O  0.79242471  0.18910357  0.04156380    -0.79200
C550        C  0.81234377  0.21255677  0.94426318     0.84300
O551        O  0.81686495  0.21875636  0.97689189    -0.66400
Ni552      Ni  0.74326057  0.25171660  0.08296403     1.27400
Ni553      Ni  0.71971233  0.27541916  0.00333645     1.26100
H554        H  0.77402070  0.28448589  0.97721570     0.38800
C555        C  0.24535150  0.22057801  0.74896954     0.80000
N556        N  0.21811062  0.23232104  0.76720842    -0.78300
C557        C  0.19959330  0.26010066  0.75526360     0.82400
N558        N  0.20948922  0.27688142  0.72560469    -0.78300
C559        C  0.23604829  0.26485729  0.70704530     0.82500
N560        N  0.25361812  0.23663798  0.71868244    -0.80000
C561        C  0.53410420  0.28422308  0.98571815     0.80000
N562        N  0.52416248  0.25221906  0.97343313    -0.78300
C563        C  0.49647128  0.23659132  0.98634464     0.82400
N564        N  0.47948674  0.25298748  0.01248996    -0.78300
C565        C  0.48885772  0.28516810  0.02501373     0.82500
N566        N  0.51592985  0.30133990  0.01075688    -0.80000
C567        C  0.49244109  0.49639273  0.70894549     0.80000
N568        N  0.47791950  0.52286952  0.72749443    -0.78300
C569        C  0.49180014  0.53595632  0.75643618     0.82400
N570        N  0.52135475  0.52310557  0.76696266    -0.78300
C571        C  0.53709000  0.49675788  0.74881634     0.82500
N572        N  0.52212011  0.48267057  0.72005766    -0.80000
C573        C  0.21044419  0.48566491  0.98380231     0.80000
N574        N  0.22398909  0.51268585  0.96503318    -0.78300
C575        C  0.24929599  0.53166952  0.97863124     0.82400
N576        N  0.26169470  0.52306121  0.01005951    -0.78300
C577        C  0.24933968  0.49553178  0.02843745     0.82500
N578        N  0.22341249  0.47677985  0.01520622    -0.80000
O579        O  0.38496557  0.63354712  0.83363497    -0.74700
O580        O  0.32988374  0.69609256  0.88969704    -0.74700
O581        O  0.38291444  0.70372280  0.83726028    -0.74800
O582        O  0.33581732  0.62735652  0.88076348    -0.74800
O583        O  0.37168482  0.62834109  0.92525400    -0.74800
O584        O  0.42337712  0.70038531  0.87638686    -0.74700
O585        O  0.37033273  0.69825229  0.92894512    -0.74700
O586        O  0.42168513  0.63037782  0.87725618    -0.74800
Ni587      Ni  0.35704190  0.66603604  0.85872452     1.25400
Ni588      Ni  0.39813289  0.66496784  0.90356230     1.25400
C589        C  0.41209279  0.62164545  0.84677784     0.87500
C590        C  0.33915535  0.70064857  0.92155216     0.87400
C591        C  0.41380341  0.70834522  0.84531160     0.87500
C592        C  0.34527231  0.61645814  0.91058054     0.87600
O593        O  0.63867872  0.43807602  0.86669428    -0.74700
O594        O  0.69681603  0.38137722  0.92575691    -0.74700
O595        O  0.70374437  0.44255789  0.87577423    -0.74800
O596        O  0.63294106  0.38491228  0.91270553    -0.74800
O597        O  0.64252856  0.34307931  0.87192392    -0.74800
O598        O  0.70800350  0.40588421  0.83047180    -0.74700
O599        O  0.70766449  0.34649775  0.88022301    -0.74700
O600        O  0.64392972  0.39641287  0.82531284    -0.74800
Ni601      Ni  0.66866045  0.41328889  0.89704139     1.25400
Ni602      Ni  0.67661448  0.37154731  0.85058330     1.25400
C603        C  0.63137402  0.42569433  0.83640951     0.87500
C604        C  0.70639262  0.35066802  0.91365638     0.87400
C605        C  0.71006954  0.43789245  0.84292613     0.87500
C606        C  0.62639260  0.35491771  0.89861670     0.87600
O607        O  0.32102199  0.37837861  0.62450196    -0.74700
O608        O  0.37093468  0.43010352  0.55615745    -0.74700
O609        O  0.31691509  0.37672042  0.55619843    -0.74800
O610        O  0.37134886  0.42588846  0.62412645    -0.74800
O611        O  0.40631618  0.37948779  0.62435319    -0.74800
O612        O  0.35782760  0.33694101  0.55023167    -0.74700
O613        O  0.41128308  0.38931808  0.55744690    -0.74700
O614        O  0.35608697  0.33203538  0.61871356    -0.74800
Ni615      Ni  0.34359634  0.40447910  0.58962839     1.25400
Ni616      Ni  0.38418005  0.35774766  0.58688828     1.25400
C617        C  0.32963514  0.34646952  0.63170459     0.87500
C618        C  0.40221535  0.42212707  0.55327954     0.87400
C619        C  0.32655404  0.34478010  0.54806972     0.87500
C620        C  0.39858064  0.41098261  0.63413248     0.87600
O621        O  0.32004049  0.38514771  0.13032953    -0.74700
O622        O  0.36496797  0.32956972  0.19876859    -0.74700
O623        O  0.31164013  0.38418347  0.19770584    -0.74800
O624        O  0.36967912  0.33727677  0.13056990    -0.74800
O625        O  0.40517019  0.38260711  0.13475592    -0.74800
O626        O  0.35066830  0.42462781  0.20738303    -0.74700
O627        O  0.40530948  0.36974136  0.20187512    -0.74700
O628        O  0.35497842  0.43038102  0.13896952    -0.74800
Ni629      Ni  0.34028404  0.35733853  0.16496435     1.25400
Ni630      Ni  0.38044694  0.40340511  0.17192483     1.25400
C631        C  0.32893063  0.41716763  0.12461774     0.87500
C632        C  0.39580340  0.33686075  0.20472733     0.87400
C633        C  0.31939861  0.41634044  0.20682757     0.87500
C634        C  0.39652493  0.35306431  0.12090981     0.87600
O635        O  0.37928095  0.14319972  0.91533241    -0.74700
O636        O  0.33197245  0.07165763  0.86273338    -0.74700
O637        O  0.38246832  0.07361433  0.91724285    -0.74800
O638        O  0.33188492  0.14116915  0.86545517    -0.74800
O639        O  0.36943063  0.13858093  0.82208446    -0.74800
O640        O  0.42503705  0.07833302  0.88005381    -0.74700
O641        O  0.37448456  0.06888453  0.82509389    -0.74700
O642        O  0.41683241  0.14668294  0.87219274    -0.74800
Ni643      Ni  0.35501385  0.10681607  0.89169351     1.25400
Ni644      Ni  0.39796366  0.10755273  0.84826971     1.25400
C645        C  0.40675449  0.15531683  0.90288436     0.87500
C646        C  0.34336742  0.06317382  0.83216250     0.87400
C647        C  0.41411530  0.07162566  0.91119705     0.87500
C648        C  0.34080312  0.14833042  0.83422224     0.87600
O649        O  0.09619390  0.32973389  0.86853018    -0.74700
O650        O  0.03485185  0.38690278  0.92382436    -0.74700
O651        O  0.03115966  0.33336419  0.86544816    -0.74800
O652        O  0.09969705  0.37821383  0.92056934    -0.74800
O653        O  0.10184944  0.42175044  0.88090981    -0.74800
O654        O  0.03275304  0.37751639  0.82713467    -0.74700
O655        O  0.03663078  0.43025749  0.88453054    -0.74700
O656        O  0.09838824  0.37344309  0.82924098    -0.74800
Ni657      Ni  0.06440269  0.35548444  0.89607846     1.25400
Ni658      Ni  0.06677138  0.40235090  0.85408443     1.25400
C659        C  0.10719179  0.34234344  0.83964494     0.87500
C660        C  0.03224581  0.42053087  0.91660707     0.87400
C661        C  0.02786467  0.34419626  0.83351916     0.87500
C662        C  0.11161712  0.40774061  0.90950434     0.87600
C663        C  0.73715539  0.78491675  0.23673646     0.80000
N664        N  0.72653057  0.76952976  0.26664990    -0.78300
C665        C  0.74058169  0.73883947  0.27786065     0.82400
N666        N  0.76528202  0.72320073  0.25871669    -0.78300
C667        C  0.77644777  0.73891507  0.22897736     0.82500
N668        N  0.76154029  0.76906631  0.21731223    -0.80000
O669        O  0.60909036  0.58405541  0.37056212    -0.74700
O670        O  0.66026646  0.63348524  0.43978145    -0.74700
O671        O  0.60981367  0.57911026  0.43869956    -0.74800
O672        O  0.65769181  0.63324624  0.37131738    -0.74800
O673        O  0.62109628  0.67832701  0.37619441    -0.74800
O674        O  0.56872906  0.61907953  0.43940803    -0.74700
O675        O  0.62102991  0.67538957  0.44486752    -0.74700
O676        O  0.57189283  0.62867941  0.37205919    -0.74800
Ni677      Ni  0.63561099  0.60604023  0.40558935     1.25400
Ni678      Ni  0.59419652  0.65203255  0.40904068     1.25400
C679        C  0.58130885  0.59794731  0.36116925     0.87500
C680        C  0.65174847  0.66571147  0.44818915     0.87400
C681        C  0.57872318  0.58634640  0.44314236     0.87500
C682        C  0.64799750  0.66457686  0.36340372     0.87600
C683        C  0.73646600  0.45407925  0.00534901     0.80000
N684        N  0.71996143  0.47619387  0.98390654    -0.78300
C685        C  0.73439307  0.50609706  0.97160650     0.82400
N686        N  0.76623716  0.51331597  0.98081644    -0.78300
C687        C  0.78355650  0.49067521  0.00176171     0.82500
N688        N  0.76813056  0.46134175  0.01433920    -0.80000
C689        C  0.48561245  0.80542210  0.02240225     0.80000
N690        N  0.49681854  0.79318787  0.99106488    -0.78300
C691        C  0.48560797  0.76222734  0.97735356     0.82400
N692        N  0.46247188  0.74349273  0.99555923    -0.78300
C693        C  0.45042770  0.75567724  0.02654895     0.82500
N694        N  0.46214155  0.78654167  0.03987136    -0.80000
C695        C  0.49256004  0.50872863  0.28410203     0.80000
N696        N  0.50256422  0.47925768  0.26658189    -0.78300
C697        C  0.48378708  0.46502277  0.24081751     0.82400
N698        N  0.45460785  0.48119113  0.23235833    -0.78300
C699        C  0.44396957  0.51059468  0.25036728     0.82500
N700        N  0.46299427  0.52391577  0.27621183    -0.80000
O701        O  0.33990611  0.62106207  0.17764125    -0.74700
O702        O  0.28316014  0.66862053  0.11062981    -0.74700
O703        O  0.27762078  0.60933073  0.16321482    -0.74800
O704        O  0.34537882  0.67438153  0.13053822    -0.74800
O705        O  0.36011836  0.63430672  0.08991869    -0.74800
O706        O  0.29078223  0.57108731  0.12082274    -0.74700
O707        O  0.29748780  0.62902868  0.06986908    -0.74700
O708        O  0.35343285  0.58083923  0.13655672    -0.74800
Ni709      Ni  0.31006257  0.64476800  0.14677077     1.25400
Ni710      Ni  0.32535768  0.60241943  0.10265305     1.25400
C711        C  0.35513040  0.59256059  0.16794975     0.87500
C712        C  0.28699095  0.66065766  0.07783605     0.87400
C713        C  0.27899286  0.57680321  0.15181208     0.87500
C714        C  0.36388663  0.66468408  0.10478298     0.87600
O715        O  0.65011277  0.37564304  0.11850956    -0.74700
O716        O  0.60305484  0.30593205  0.17051372    -0.74700
O717        O  0.65663435  0.30624276  0.12140682    -0.74800
O718        O  0.59957945  0.37525568  0.16483088    -0.74800
O719        O  0.56182818  0.36916117  0.12297184    -0.74800
O720        O  0.62152662  0.30119164  0.07701836    -0.74700
O721        O  0.56577187  0.29985764  0.12837484    -0.74700
O722        O  0.61322508  0.37066743  0.07531169    -0.74800
Ni723      Ni  0.62858525  0.34047249  0.14527947     1.25400
Ni724      Ni  0.58924897  0.33433736  0.09916778     1.25400
C725        C  0.64028511  0.38319408  0.08781040     0.87500
C726        C  0.57336263  0.29829965  0.16098998     0.87400
C727        C  0.65135639  0.29794125  0.08934734     0.87500
C728        C  0.57058310  0.38169920  0.15270732     0.87600
O729        O  0.61099631  0.69042670  0.89228489    -0.74700
O730        O  0.66827016  0.63118723  0.83389884    -0.74700
O731        O  0.61921440  0.68662813  0.82420655    -0.74800
O732        O  0.65786969  0.63909180  0.90172665    -0.74800
O733        O  0.62002307  0.59589533  0.89734469    -0.74800
O734        O  0.57695221  0.64827535  0.82439653    -0.74700
O735        O  0.62667434  0.59243008  0.82885048    -0.74700
O736        O  0.57295483  0.64732264  0.89233360    -0.74800
Ni737      Ni  0.64061635  0.66331395  0.86265497     1.25400
Ni738      Ni  0.59781605  0.61940522  0.86014314     1.25400
C739        C  0.58201239  0.67876387  0.90090687     0.87500
C740        C  0.65795392  0.59969320  0.82579839     0.87400
C741        C  0.58879086  0.67919681  0.81685741     0.87500
C742        C  0.64655638  0.60868336  0.91081750     0.87600
O743        O  0.88115589  0.60194587  0.07529684    -0.74700
O744        O  0.94105166  0.65459838  0.13226508    -0.74700
O745        O  0.94524422  0.59516032  0.08327808    -0.74800
O746        O  0.87647795  0.65672001  0.12099984    -0.74800
O747        O  0.86822716  0.61766174  0.16429563    -0.74800
O748        O  0.93855061  0.55731603  0.12717436    -0.74700
O749        O  0.93233991  0.61769754  0.17676004    -0.74700
O750        O  0.87393402  0.56257103  0.11813085    -0.74800
Ni751      Ni  0.91190691  0.62847949  0.10157470     1.25400
Ni752      Ni  0.90358486  0.58734809  0.14833443     1.25400
C753        C  0.86901485  0.57276775  0.08661961     0.87500
C754        C  0.94064696  0.64884794  0.16541087     0.87400
C755        C  0.94699381  0.56299627  0.09507091     0.87500
C756        C  0.86172157  0.64730945  0.14925963     0.87600
O757        O  0.66430341  0.87954086  0.13084148    -0.74700
O758        O  0.62986999  0.95051075  0.06824399    -0.74700
O759        O  0.68032369  0.94703305  0.12476577    -0.74800
O760        O  0.61830354  0.88290227  0.07946005    -0.74800
O761        O  0.58096604  0.89416771  0.12187452    -0.74800
O762        O  0.63877119  0.96480556  0.15942997    -0.74700
O763        O  0.58781863  0.96079021  0.10517969    -0.74700
O764        O  0.62789504  0.89702328  0.17219775    -0.74800
Ni765      Ni  0.64985819  0.91518220  0.09922831     1.25400
Ni766      Ni  0.60762630  0.93043520  0.14105989     1.25400
C767        C  0.65247216  0.87763694  0.16187826     0.87500
C768        C  0.59921163  0.96032125  0.07354122     0.87400
C769        C  0.67045017  0.96077098  0.15404483     0.87500
C770        C  0.58919657  0.87901414  0.09310879     0.87600
O771        O  0.66559841  0.48591221  0.72516966    -0.81100
O772        O  0.77650175  0.54617710  0.83073946    -0.65800
O773        O  0.71518424  0.52911621  0.75380378    -1.12400
C774        C  0.80978923  0.45917914  0.71631192     1.05700
O775        O  0.81220621  0.56257665  0.79083471    -0.79000
O776        O  0.80403661  0.55881724  0.72073505    -0.66600
Ni777      Ni  0.67227463  0.51120043  0.76808165     1.34900
C778        C  0.78233816  0.55742685  0.69653799     0.84500
O779        O  0.71340859  0.57458263  0.81263928    -0.79600
O780        O  0.67040405  0.53888305  0.81051312    -0.89900
C781        C  0.80635682  0.55461086  0.82242613     0.84000
O782        O  0.69148769  0.46944401  0.79134609    -0.68100
O783        O  0.82566233  0.48660657  0.72656764    -0.87400
C784        C  0.71108748  0.47000448  0.81767406     0.84900
C785        C  0.68184515  0.57016875  0.81468076     1.06400
H786        H  0.77673284  0.48509130  0.78234323     0.38200
O787        O  0.77350644  0.50642450  0.76865975    -1.10000
O788        O  0.76023456  0.53270532  0.69649461    -0.66700
Ni789      Ni  0.74479165  0.49534147  0.72997267     1.26300
O790        O  0.72831521  0.49826914  0.82398338    -0.66900
O791        O  0.77754382  0.45915463  0.71271775    -0.79200
C792        C  0.68013764  0.48243753  0.69563551     0.84300
O793        O  0.71221221  0.48474867  0.69249258    -0.66400
Ni794      Ni  0.81665619  0.52541432  0.75750920     1.27400
Ni795      Ni  0.74414131  0.53848470  0.79333620     1.26100
H796        H  0.71240506  0.55055554  0.74010394     0.38800
O797        O  0.96960680  0.02156189  0.59596424    -0.81100
O798        O  0.03781663  0.91644189  0.47926162    -0.65800
O799        O  0.01508673  0.99405426  0.54482123    -1.12400
C800        C  0.95008587  0.03399875  0.44963045     1.05700
O801        O  0.03454381  0.94815039  0.43010532    -0.79000
O802        O  0.04637369  0.01723768  0.45510490    -0.66600
Ni803      Ni  0.99640604  0.97895301  0.58891334     1.34900
C804        C  0.04629407  0.04345970  0.47674627     0.84500
O805        O  0.06064972  0.93812794  0.54693081    -0.79600
O806        O  0.02499245  0.93756385  0.59074427    -0.89900
C807        C  0.03997382  0.91877000  0.44566705     0.84000
O808        O  0.95985538  0.95342519  0.56579856    -0.68100
O809        O  0.97899737  0.03158834  0.43563676    -0.87400
C810        C  0.96245335  0.92692618  0.54450213     0.84900
C811        C  0.05524046  0.93675481  0.58011540     1.06400
H812        H  0.97398890  0.96263623  0.48163362     0.38200
O813        O  0.99367530  0.97726167  0.48375952    -1.10000
O814        O  0.02045601  0.04928995  0.49653749    -0.66700
Ni815      Ni  0.98384723  0.01752233  0.51487341     1.26300
O816        O  0.99064278  0.92065866  0.52916391    -0.66900
O817        O  0.94814167  0.03435736  0.48322328    -0.79200
C818        C  0.97145215  0.05281998  0.58297254     0.84300
O819        O  0.97596728  0.05664667  0.54965063    -0.66400
Ni820      Ni  0.00811632  0.99050617  0.43749710     1.27400
Ni821      Ni  0.02632907  0.95458809  0.51356357     1.26100
H822        H  0.03443987  0.00875174  0.54872633     0.38800
C823        C  0.51914451  0.98184262  0.73030556     0.80000
N824        N  0.53656153  0.99982850  0.75478076    -0.78300
C825        C  0.52295807  0.02796381  0.77195199     0.82400
N826        N  0.49118454  0.03788157  0.76478652    -0.78300
C827        C  0.47308157  0.02013077  0.74055450     0.82500
N828        N  0.48743211  0.99228181  0.72303067    -0.80000
C829        C  0.79149317  0.02286714  0.52416756     0.80000
N830        N  0.77905907  0.04046457  0.49639672    -0.78300
C831        C  0.75393044  0.02598641  0.47784613     0.82400
N832        N  0.74142685  0.99401055  0.48751744    -0.78300
C833        C  0.75334773  0.97637280  0.51553439     0.82500
N834        N  0.77827963  0.99133418  0.53412232    -0.80000
C835        C  0.46726810  0.23368554  0.52646775     0.80000
N836        N  0.47838851  0.26413878  0.54190316    -0.78300
C837        C  0.50622098  0.28057796  0.52967353     0.82400
N838        N  0.52324398  0.26628739  0.50247487    -0.78300
C839        C  0.51242658  0.23635224  0.48695772     0.82500
N840        N  0.48463073  0.21986345  0.49892444    -0.80000
O841        O  0.62493123  0.18154289  0.37664627    -0.74700
O842        O  0.67776108  0.12596971  0.31009963    -0.74700
O843        O  0.62205730  0.18009167  0.30805702    -0.74800
O844        O  0.67505918  0.13366789  0.37773920    -0.74800
O845        O  0.63823753  0.08914660  0.37921427    -0.74800
O846        O  0.58279551  0.13887495  0.31273226    -0.74700
O847        O  0.63821805  0.08488256  0.31098656    -0.74700
O848        O  0.58810919  0.13692274  0.38017908    -0.74800
Ni849      Ni  0.65122363  0.15700973  0.34208308     1.25400
Ni850      Ni  0.61053372  0.11077840  0.34496524     1.25400
C851        C  0.59830447  0.16766991  0.38933132     0.87500
C852        C  0.66930479  0.09291639  0.30605334     0.87400
C853        C  0.59083392  0.17150991  0.30594847     0.87500
C854        C  0.66570346  0.10327218  0.38899392     0.87600
O855        O  0.35592189  0.12489148  0.59033185    -0.74700
O856        O  0.29142217  0.07125310  0.64490006    -0.74700
O857        O  0.29037171  0.12329981  0.58524268    -0.74800
O858        O  0.35632815  0.07719054  0.64351033    -0.74800
O859        O  0.35125175  0.12080705  0.68297101    -0.74800
O860        O  0.28830581  0.16876517  0.62217986    -0.74700
O861        O  0.28574364  0.11644309  0.68183967    -0.74700
O862        O  0.35307033  0.16839964  0.62998003    -0.74800
Ni863      Ni  0.32276362  0.09755143  0.61459225     1.25400
Ni864      Ni  0.31852794  0.14518733  0.65558741     1.25400
C865        C  0.36515973  0.15555879  0.60153397     0.87500
C866        C  0.28496158  0.08236517  0.67633786     0.87400
C867        C  0.28522746  0.15700269  0.59046736     0.87500
C868        C  0.36438996  0.09124950  0.67275349     0.87600
C869        C  0.75726431  0.31496460  0.73776700     0.80000
N870        N  0.74196837  0.30421656  0.76755097    -0.78300
C871        C  0.75296746  0.27516955  0.78493959     0.82400
N872        N  0.77959043  0.25677288  0.77177061    -0.78300
C873        C  0.79518015  0.26726998  0.74190976     0.82500
N874        N  0.78352131  0.29625805  0.72491119    -0.80000
O875        O  0.66562923  0.39491458  0.62840629    -0.74700
O876        O  0.61171931  0.46595174  0.58557196    -0.74700
O877        O  0.66671560  0.46453039  0.63492672    -0.74800
O878        O  0.61401206  0.39572457  0.58362015    -0.74800
O879        O  0.58068279  0.39021603  0.63032938    -0.74800
O880        O  0.62603489  0.46651751  0.67477813    -0.74700
O881        O  0.57190155  0.45922439  0.62580319    -0.74700
O882        O  0.63204170  0.39663383  0.67540145    -0.74800
Ni883      Ni  0.64080892  0.43105430  0.60637004     1.25400
Ni884      Ni  0.60132745  0.42864358  0.65330317     1.25400
C885        C  0.65874157  0.38597173  0.65969499     0.87500
C886        C  0.58055062  0.46691359  0.59423632     0.87400
C887        C  0.65682832  0.47178957  0.66633331     0.87500
C888        C  0.58859088  0.38182173  0.59898338     0.87600
O889        O  0.67288543  0.86617806  0.61237366    -0.74700
O890        O  0.61854052  0.79653897  0.65854142    -0.74700
O891        O  0.67216893  0.79731760  0.60456480    -0.74800
O892        O  0.62376776  0.86630095  0.66112286    -0.74800
O893        O  0.58645260  0.87199651  0.61876288    -0.74800
O894        O  0.63266674  0.79966172  0.56447861    -0.74700
O895        O  0.57901719  0.80225308  0.61879910    -0.74700
O896        O  0.63575986  0.86951105  0.56958467    -0.74800
Ni897      Ni  0.64807967  0.83053428  0.63566829     1.25400
Ni898      Ni  0.60700856  0.83524844  0.59134051     1.25400
C899        C  0.66388805  0.87829696  0.58274512     0.87500
C900        C  0.58740249  0.79472891  0.65045952     0.87400
C901        C  0.66363158  0.79429660  0.57219341     0.87500
C902        C  0.59715850  0.88058814  0.64906719     0.87600
O903        O  0.89687104  0.12307177  0.59777421    -0.74700
O904        O  0.96152320  0.17434066  0.65258993    -0.74700
O905        O  0.96204615  0.11665218  0.59821272    -0.74800
O906        O  0.89700099  0.17583206  0.64565885    -0.74800
O907        O  0.89241031  0.13639632  0.68880113    -0.74800
O908        O  0.95674301  0.07666802  0.64050241    -0.74700
O909        O  0.95799164  0.13312080  0.69386465    -0.74700
O910        O  0.89122856  0.08346716  0.64089222    -0.74800
Ni911      Ni  0.93040667  0.14885330  0.62204623     1.25400
Ni912      Ni  0.92518852  0.10584546  0.66755642     1.25400
C913        C  0.88332351  0.09535005  0.61085175     0.87500
C914        C  0.96356444  0.16580846  0.68527600     0.87400
C915        C  0.96403081  0.08391431  0.60830277     0.87500
C916        C  0.88435145  0.16623508  0.67489567     0.87600
O917        O  0.62709056  0.10642440  0.87338797    -0.74700
O918        O  0.67354834  0.15663029  0.94568788    -0.74700
O919        O  0.62158799  0.10244260  0.94155804    -0.74800
O920        O  0.67508021  0.15703911  0.87754484    -0.74800
O921        O  0.63645829  0.19999192  0.87791358    -0.74800
O922        O  0.58211409  0.14435769  0.94158841    -0.74700
O923        O  0.63441653  0.19874820  0.94637864    -0.74700
O924        O  0.58789657  0.14901124  0.87320012    -0.74800
Ni925      Ni  0.65061953  0.12907493  0.91018914     1.25400
Ni926      Ni  0.60873035  0.17454575  0.91034795     1.25400
C927        C  0.59936328  0.11892231  0.86235604     0.87500
C928        C  0.66487240  0.18919678  0.95191077     0.87400
C929        C  0.59074513  0.11151854  0.94626954     0.87500
C930        C  0.66541987  0.18830162  0.86875097     0.87600
C931        C  0.00551926  0.76564949  0.52105277     0.80000
N932        N  0.97796349  0.74770930  0.53095287    -0.78300
C933        C  0.96425840  0.72395692  0.50879276     0.82400
N934        N  0.97906328  0.71677333  0.47765438    -0.78300
C935        C  0.00701420  0.73459982  0.46766322     0.82500
N936        N  0.02000430  0.75904121  0.48962655    -0.80000
O937        O  0.12713788  0.57479857  0.36860111    -0.74700
O938        O  0.06954597  0.61890878  0.29941878    -0.74700
O939        O  0.12250569  0.56155952  0.30087665    -0.74800
O940        O  0.07797536  0.62404529  0.36640042    -0.74800
O941        O  0.11353897  0.66810371  0.35464644    -0.74800
O942        O  0.16273110  0.60141152  0.29485279    -0.74700
O943        O  0.10934840  0.65764457  0.28694830    -0.74700
O944        O  0.16329144  0.61917384  0.36100431    -0.74800
Ni945      Ni  0.09790283  0.59308180  0.33327458     1.25400
Ni946      Ni  0.13863759  0.63795605  0.32308288     1.25400
C947        C  0.15460034  0.59045772  0.37636260     0.87500
C948        C  0.07783050  0.65058351  0.28880041     0.87400
C949        C  0.15356362  0.56822708  0.29455591     0.87500
C950        C  0.08708347  0.65640203  0.36989775     0.87600
C951        C  0.30122444  0.73938233  0.75649922     0.80000
N952        N  0.29223801  0.72256529  0.78678096    -0.78300
C953        C  0.26285169  0.73115748  0.80310387     0.82400
N954        N  0.24212404  0.75525561  0.78826847    -0.78300
C955        C  0.25056160  0.77114160  0.75801591     0.82500
N956        N  0.28002984  0.76342787  0.74263122    -0.80000
C957        C  0.24061745  0.51784937  0.47375499     0.80000
N958        N  0.23013987  0.48637740  0.48681383    -0.78300
C959        C  0.24658096  0.47021128  0.51292654     0.82400
N960        N  0.27477237  0.48503976  0.52541257    -0.78300
C961        C  0.28645845  0.51619418  0.51220020     0.82500
N962        N  0.26879110  0.53295515  0.48668988    -0.80000
O963        O  0.39147182  0.62551679  0.58312892    -0.74700
O964        O  0.46417274  0.67445904  0.62876670    -0.74700
O965        O  0.45572343  0.61677666  0.57403035    -0.74800
O966        O  0.39876872  0.67619740  0.63366737    -0.74800
O967        O  0.39809107  0.63191736  0.67230253    -0.74800
O968        O  0.46055938  0.57736907  0.61665701    -0.74700
O969        O  0.46303144  0.63455885  0.67120490    -0.74700
O970        O  0.39496974  0.58143340  0.62177553    -0.74800
Ni971      Ni  0.42837098  0.64979631  0.60323513     1.25400
Ni972      Ni  0.43000822  0.60481862  0.64677858     1.25400
C973        C  0.38194182  0.59506921  0.59439272     0.87500
C974        C  0.46818129  0.66720710  0.66152981     0.87400
C975        C  0.46084163  0.58399254  0.58360388     0.87500
C976        C  0.38964121  0.66341184  0.66333923     0.87600
C977        C  0.00175420  0.51571874  0.79126749     0.80000
N978        N  0.01403797  0.48703615  0.77412501    -0.78300
C979        C  0.00119589  0.47599148  0.74371688     0.82400
N980        N  0.97342578  0.49187244  0.73180258    -0.78300
C981        C  0.95910326  0.51915854  0.74954905     0.82500
N982        N  0.97406184  0.53224565  0.77861627    -0.80000
O983        O  0.07993000  0.38652533  0.62731683    -0.74700
O984        O  0.12194686  0.30510045  0.58785786    -0.74700
O985        O  0.07089423  0.31854548  0.64106494    -0.74800
O986        O  0.12800664  0.37470673  0.58005164    -0.74800
O987        O  0.16440125  0.37981052  0.62367029    -0.74800
O988        O  0.11257584  0.31577859  0.67881598    -0.74700
O989        O  0.16453943  0.31044478  0.62418948    -0.74700
O990        O  0.11592182  0.38566229  0.67148434    -0.74800
Ni991      Ni  0.09872398  0.34539684  0.60756937     1.25400
Ni992      Ni  0.14071379  0.34715755  0.65128402     1.25400
C993        C  0.09027507  0.39879742  0.65624743     0.87500
C994        C  0.15319838  0.30092129  0.59414498     0.87400
C995        C  0.08109331  0.31321559  0.67256093     0.87500
C996        C  0.15532219  0.38687318  0.59266299     0.87600
O997        O  0.85747217  0.61672060  0.57736348    -0.74700
O998        O  0.79046793  0.57165653  0.63465560    -0.74700
O999        O  0.79222036  0.62107222  0.57572102    -0.65200
O1000       O  0.85665131  0.57293925  0.63233756    -0.74800
O1001       O  0.85766915  0.62005760  0.66817992    -0.74800
O1002       O  0.79275579  0.66739890  0.61190717    -0.74700
O1003       O  0.79224659  0.61719865  0.67182901    -0.74700
O1004       O  0.85762398  0.66414054  0.61309863    -0.74800
Ni1005     Ni  0.82343397  0.59390763  0.60375173     1.25400
Ni1006     Ni  0.82421430  0.64389391  0.64266012     1.25400
C1007       C  0.86813699  0.64755749  0.58581762     0.87500
C1008       C  0.78630106  0.58375743  0.66595055     0.87400
C1009       C  0.78864286  0.65490608  0.58092518     0.87500
C1010       C  0.86777739  0.58892853  0.65942346     0.87600
O1011       O  0.07828560  0.85362041  0.64057976    -0.74700
O1012       O  0.12465530  0.92524773  0.69287122    -0.74700
O1013       O  0.07402372  0.92329523  0.63882266    -0.74800
O1014       O  0.12512470  0.85526575  0.69067105    -0.74800
O1015       O  0.16427642  0.85552991  0.64863505    -0.74800
O1016       O  0.11368351  0.92582667  0.59796165    -0.74700
O1017       O  0.16566066  0.92528735  0.65337045    -0.74700
O1018       O  0.11714609  0.85651155  0.59828429    -0.74800
Ni1019     Ni  0.09912321  0.88994044  0.66719809     1.25400
Ni1020     Ni  0.14172664  0.89161917  0.62309852     1.25400
C1021       C  0.08949220  0.84465970  0.61041442     0.87500
C1022       C  0.15548584  0.93146774  0.68498566     0.87400
C1023       C  0.08261899  0.92927284  0.60682407     0.87500
C1024       C  0.15338141  0.84508705  0.67840768     0.87600
O1025       O  0.14348235  0.66497480  0.89436522    -0.74700
O1026       O  0.07957371  0.60879703  0.94911213    -0.74700
O1027       O  0.13325417  0.65955532  0.96242142    -0.74800
O1028       O  0.09237428  0.62028828  0.88256026    -0.74800
O1029       O  0.12434697  0.57166911  0.88673794    -0.74800
O1030       O  0.17477958  0.62038556  0.95869546    -0.74700
O1031       O  0.11963375  0.56840510  0.95562251    -0.74700
O1032       O  0.17682116  0.61729632  0.89066907    -0.74800
Ni1033     Ni  0.11079237  0.64009444  0.92269521     1.25400
Ni1034     Ni  0.15013300  0.59251128  0.92363449     1.25400
C1035       C  0.17091127  0.65003634  0.88397316     0.87500
C1036       C  0.08826602  0.57655624  0.95717464     0.87400
C1037       C  0.16435703  0.65214480  0.96650403     0.87500
C1038       C  0.09966029  0.58861105  0.87320066     0.87600
C1039       C  0.70026165  0.24458519  0.28071692     0.80000
N1040       N  0.71437721  0.21612093  0.29664954    -0.78300
C1041       C  0.74485369  0.20416041  0.28652434     0.82400
N1042       N  0.76159961  0.22123091  0.26061791    -0.78300
C1043       C  0.74798045  0.24972457  0.24436211     0.82500
N1044       N  0.71736482  0.26150899  0.25478397    -0.80000
O1045       O  0.59642206  0.41143342  0.37987257    -0.74700
O1046       O  0.52662174  0.36273336  0.33129754    -0.74700
O1047       O  0.53163068  0.42433726  0.38134778    -0.74800
O1048       O  0.59131806  0.35646293  0.33512162    -0.74800
O1049       O  0.58519185  0.31858127  0.37949057    -0.74800
O1050       O  0.52693353  0.38735315  0.42612311    -0.74700
O1051       O  0.52055322  0.32518883  0.37520941    -0.74700
O1052       O  0.59125967  0.37350473  0.42441243    -0.74800
Ni1053     Ni  0.56077570  0.39026285  0.35533128     1.25400
Ni1054     Ni  0.55470397  0.34996550  0.40303026     1.25400
C1055       C  0.60584264  0.39980489  0.40957561     0.87500
C1056       C  0.52061308  0.33061391  0.34178519     0.87400
C1057       C  0.52623694  0.41988650  0.41449852     0.87500
C1058       C  0.59802934  0.32657150  0.34979144     0.87600
C1059       C  0.71166429  0.47482011  0.47872211     0.80000
N1060       N  0.71964850  0.50953469  0.47248592    -0.78300
C1061       C  0.74572658  0.52484635  0.48935499     0.82400
N1062       N  0.76362067  0.50499228  0.51174046    -0.78300
C1063       C  0.75623441  0.47071631  0.51794410     0.82500
N1064       N  0.73033728  0.45562994  0.50139920    -0.80000
C1065       C  0.97499463  0.47386344  0.23997666     0.80000
N1066       N  0.96191059  0.50369159  0.25473862    -0.78300
C1067       C  0.97509284  0.51784599  0.28405775     0.82400
N1068       N  0.00164403  0.50173478  0.29896470    -0.78300
C1069       C  0.01476391  0.47157009  0.28486719     0.82500
N1070       N  0.00136842  0.45765204  0.25548225    -0.80000
C1071       C  0.99023069  0.19614033  0.52766407     0.80000
N1072       N  0.97709150  0.21462000  0.55472719    -0.78300
C1073       C  0.98974729  0.24618433  0.56439585     0.82400
N1074       N  0.01689534  0.25897897  0.54791226    -0.78300
C1075       C  0.03129211  0.24102904  0.52092782     0.82500
N1076       N  0.01730811  0.20976603  0.51030650    -0.80000
O1077       O  0.12749466  0.31646067  0.40391149    -0.74700
O1078       O  0.18729240  0.37569629  0.34899098    -0.74700
O1079       O  0.19288375  0.31890541  0.40425814    -0.74800
O1080       O  0.12259161  0.36762196  0.35464132    -0.74800
O1081       O  0.12200557  0.41021900  0.39563350    -0.74800
O1082       O  0.19227340  0.36122754  0.44478011    -0.74700
O1083       O  0.18713710  0.41644330  0.39118450    -0.74700
O1084       O  0.12613811  0.35893769  0.44464335    -0.74800
Ni1085     Ni  0.15855371  0.34318049  0.37634197     1.25400
Ni1086     Ni  0.15750356  0.38815215  0.42051345     1.25400
C1087       C  0.11686786  0.32837237  0.43339399     0.87500
C1088       C  0.19113046  0.40860080  0.35855309     0.87400
C1089       C  0.19795359  0.32841045  0.43633747     0.87500
C1090       C  0.11121284  0.39707090  0.36701971     0.87600
O1091       O  0.91362151  0.37627564  0.63912317    -0.74700
O1092       O  0.86332365  0.43511679  0.70098400    -0.74700
O1093       O  0.91566355  0.38216584  0.70690045    -0.74800
O1094       O  0.86443058  0.42390800  0.63229947    -0.74800
O1095       O  0.82795906  0.37931390  0.63665138    -0.74800
O1096       O  0.87431286  0.34380296  0.71538711    -0.74700
O1097       O  0.82185628  0.39596380  0.70304469    -0.74700
O1098       O  0.87695635  0.33218844  0.64755728    -0.74800
Ni1099     Ni  0.89048562  0.40627067  0.67029356     1.25400
Ni1100     Ni  0.84880945  0.36132865  0.67659517     1.25400
C1101       C  0.90427865  0.34422626  0.63456301     0.87500
C1102       C  0.83226890  0.42822784  0.70645379     0.87400
C1103       C  0.90557099  0.35140019  0.71741535     0.87500
C1104       C  0.83845558  0.40740115  0.62155066     0.87600
O1105       O  0.82038572  0.35469356  0.13423609    -0.74700
O1106       O  0.86739837  0.40720343  0.06410333    -0.74700
O1107       O  0.81758553  0.35074764  0.06590244    -0.74800
O1108       O  0.86761278  0.40566568  0.13301520    -0.74800
O1109       O  0.90575583  0.36229380  0.13349286    -0.74800
O1110       O  0.85930336  0.31170229  0.06157862    -0.74700
O1111       O  0.90983021  0.36914916  0.06575766    -0.74700
O1112       O  0.85843934  0.31122685  0.13116364    -0.74800
Ni1113     Ni  0.84184545  0.38107987  0.09860938     1.25400
Ni1114     Ni  0.88473043  0.33702066  0.09715559     1.25400
C1115       C  0.83114211  0.32421931  0.14395321     0.87500
C1116       C  0.89874945  0.40093159  0.05962926     0.87400
C1117       C  0.82800338  0.31894505  0.05830000     0.87500
C1118       C  0.89505608  0.39245101  0.14438339     0.87600
O1119       O  0.86400225  0.63261356  0.34074557    -0.74700
O1120       O  0.81854306  0.70807429  0.39155313    -0.74700
O1121       O  0.87252776  0.70179532  0.33819707    -0.74800
O1122       O  0.81366972  0.63908445  0.38832019    -0.74800
O1123       O  0.84997239  0.63687657  0.43202849    -0.74800
O1124       O  0.90961005  0.69713545  0.38073719    -0.74700
O1125       O  0.85707155  0.70620423  0.43270766    -0.74700
O1126       O  0.89977287  0.62846381  0.38490253    -0.74800
Ni1127     Ni  0.84086993  0.67139176  0.36302021     1.25400
Ni1128     Ni  0.88051480  0.66766673  0.40908260     1.25400
C1129       C  0.88985098  0.61858571  0.35476352     0.87500
C1130       C  0.82667107  0.71213338  0.42398015     0.87400
C1131       C  0.90312877  0.70249059  0.34821853     0.87500
C1132       C  0.82161131  0.62892233  0.41894753     0.87600
O1133       O  0.86165776  0.11969621  0.35770053    -0.74700
O1134       O  0.92539945  0.05380775  0.39511621    -0.74700
O1135       O  0.87252618  0.05216602  0.34448365    -0.74800
O1136       O  0.91147009  0.12110109  0.40494221    -0.74800
O1137       O  0.87609853  0.10622507  0.44782013    -0.74800
O1138       O  0.83393409  0.03949350  0.38454640    -0.74700
O1139       O  0.88941244  0.03939925  0.43716666    -0.74700
O1140       O  0.82501691  0.10673490  0.40010584    -0.74800
Ni1141     Ni  0.89398476  0.08673527  0.37405036     1.25400
Ni1142     Ni  0.85475753  0.07169630  0.41890234     1.25400
C1143       C  0.83250419  0.12251317  0.37148208     0.87500
C1144       C  0.92001618  0.04188222  0.42616359     0.87400
C1145       C  0.84311562  0.04067822  0.35204952     0.87500
C1146       C  0.90256807  0.12201815  0.43703121     0.87600
O1147       O  0.91707981  0.28995959  0.72542338    -0.81100
O1148       O  0.03156348  0.18604575  0.78640056    -0.65800
O1149       O  0.96659868  0.26266513  0.77049434    -1.12400
C1150       C  0.05726676  0.30617737  0.70328312     1.05700
O1151       O  0.07279752  0.22404517  0.79473596    -0.79000
O1152       O  0.04882309  0.29144507  0.80390331    -0.66600
Ni1153     Ni  0.92434760  0.24719221  0.75234014     1.34900
C1154       C  0.02757525  0.31696702  0.80305144     0.84500
O1155       O  0.96718036  0.20411486  0.81546510    -0.79600
O1156       O  0.92327554  0.20522488  0.78133691    -0.89900
C1157       C  0.06276106  0.19224286  0.79092788     0.84000
O1158       O  0.94417819  0.22124984  0.71232632    -0.68100
O1159       O  0.06987743  0.30411571  0.73357564    -0.87400
C1160       C  0.96455718  0.19475027  0.71407901     0.84900
C1161       C  0.93540030  0.20194104  0.81180803     1.06400
H1162       H  0.02897538  0.23491330  0.72587379     0.38200
O1163       O  0.02540308  0.24886009  0.74690537    -1.10000
O1164       O  0.00954563  0.32120630  0.77566788    -0.66700
Ni1165     Ni  0.99469690  0.28780302  0.73768236     1.26300
O1166       O  0.98230588  0.19055159  0.74161909    -0.66900
O1167       O  0.02525415  0.30590696  0.70078502    -0.79200
C1168       C  0.92953317  0.32122407  0.72607019     0.84300
O1169       O  0.96109498  0.32563214  0.73000707    -0.66400
Ni1170     Ni  0.06781087  0.26414068  0.76476316     1.27400
Ni1171     Ni  0.99749510  0.22355385  0.77943044     1.26100
H1172       H  0.96300529  0.27658076  0.79153539     0.38800
C1173       C  0.99747733  0.24523398  0.96865195     0.80000
N1174       N  0.97703767  0.22236831  0.98579065    -0.78300
C1175       C  0.95925080  0.23343921  0.01406135     0.82400
N1176       N  0.96267403  0.26738790  0.02549668    -0.78300
C1177       C  0.98341075  0.29047292  0.00912176     0.82500
N1178       N  0.00067145  0.27907351  0.98045520    -0.80000
O1179       O  0.06436873  0.36501898  0.12883159    -0.74700
O1180       O  0.11553716  0.42883392  0.18535831    -0.74700
O1181       O  0.06302317  0.43417162  0.13371635    -0.74800
O1182       O  0.11419094  0.35859770  0.17643654    -0.74800
O1183       O  0.15106014  0.36086992  0.13243704    -0.74800
O1184       O  0.10271869  0.43861812  0.09297398    -0.74700
O1185       O  0.15401811  0.43037880  0.14293765    -0.74700
O1186       O  0.10138323  0.36965538  0.08527754    -0.74800
Ni1187     Ni  0.08799714  0.39699202  0.15788637     1.25400
Ni1188     Ni  0.12877249  0.40043078  0.11207194     1.25400
C1189       C  0.07269661  0.36020365  0.09677884     0.87500
C1190       C  0.14555650  0.43527125  0.17511304     0.87400
C1191       C  0.07201537  0.44234412  0.10232885     0.87500
C1192       C  0.14114249  0.34755719  0.16139182     0.87600
C1193       C  0.99457299  0.98582791  0.30354110     0.80000
N1194       N  0.00827183  0.95481982  0.29200212    -0.78300
C1195       C  0.99509327  0.93688273  0.26483725     0.82400
N1196       N  0.96812035  0.95036923  0.24844885    -0.78300
C1197       C  0.95377357  0.98127030  0.25933873     0.82500
N1198       N  0.96740309  0.99905074  0.28686091    -0.80000
C1199       C  0.22428348  0.20124431  0.27708762     0.80000
N1200       N  0.25374297  0.18893016  0.26400793    -0.78300
C1201       C  0.26798889  0.20493947  0.23587435     0.82400
N1202       N  0.25242140  0.23320135  0.22073732    -0.78300
C1203       C  0.22307622  0.24571518  0.23387720     0.82500
N1204       N  0.20910890  0.22939798  0.26177518    -0.80000
O1205       O  0.10980276  0.05569523  0.40225599    -0.74700
O1206       O  0.16409560  0.10853570  0.46785328    -0.74700
O1207       O  0.10628431  0.05754771  0.47061815    -0.74800
O1208       O  0.16117888  0.10204066  0.39946559    -0.74800
O1209       O  0.12396028  0.14652923  0.39714784    -0.74800
O1210       O  0.07078805  0.10306121  0.46965597    -0.74700
O1211       O  0.12733519  0.15287198  0.46554366    -0.74700
O1212       O  0.07280454  0.10021780  0.40081163    -0.74800
Ni1213     Ni  0.13668858  0.07933239  0.43610033     1.25400
Ni1214     Ni  0.09755620  0.12735981  0.43402288     1.25400
C1215       C  0.08235930  0.06897156  0.39117176     0.87500
C1216       C  0.15764820  0.14224854  0.47082349     0.87400
C1217       C  0.07607395  0.06955459  0.47478938     0.87500
C1218       C  0.15067259  0.13122237  0.38609303     0.87600
C1219       C  0.22529482  0.99316069  0.04535414     0.80000
N1220       N  0.21154079  0.00846434  0.01694547    -0.78300
C1221       C  0.22914778  0.03175736  0.99729297     0.82400
N1222       N  0.26061812  0.04044744  0.00641836    -0.78300
C1223       C  0.27494087  0.02481313  0.03443291     0.82500
N1224       N  0.25702967  0.00140635  0.05382630    -0.80000
O1225       O  0.39333919  0.12341957  0.07821408    -0.74700
O1226       O  0.45007734  0.19016681  0.12720925    -0.74700
O1227       O  0.45685657  0.13805526  0.06713389    -0.74800
O1228       O  0.38762155  0.17041509  0.13090835    -0.74800
O1229       O  0.40097166  0.12803867  0.16929960    -0.74800
O1230       O  0.46921842  0.09464047  0.10389193    -0.74700
O1231       O  0.46328232  0.14739738  0.16429089    -0.74700
O1232       O  0.40627137  0.08093831  0.11671512    -0.74800
Ni1233     Ni  0.42243880  0.15725046  0.09934135     1.25400
Ni1234     Ni  0.43659038  0.11140563  0.13975291     1.25400
C1235       C  0.38945433  0.09198627  0.09070615     0.87500
C1236       C  0.45841564  0.18106023  0.15860483     0.87400
C1237       C  0.46755316  0.10581686  0.07182736     0.87500
C1238       C  0.38295647  0.15469844  0.16016509     0.87600
O1239       O  0.11667145  0.18126538  0.87007227    -0.74700
O1240       O  0.17369876  0.12497967  0.80904254    -0.74700
O1241       O  0.11897278  0.17419321  0.80165903    -0.74800
O1242       O  0.16780478  0.13414420  0.87723217    -0.74800
O1243       O  0.13168794  0.08901968  0.87871308    -0.74800
O1244       O  0.08051806  0.13177047  0.80577412    -0.74700
O1245       O  0.13576096  0.08191009  0.81050965    -0.74700
O1246       O  0.08093237  0.13589171  0.87385913    -0.74800
Ni1247     Ni  0.14565884  0.15525832  0.83882728     1.25400
Ni1248     Ni  0.10604512  0.10787061  0.84166497     1.25400
C1249       C  0.08903845  0.16802479  0.88103967     0.87500
C1250       C  0.16600908  0.09198702  0.80484742     0.87400
C1251       C  0.08855444  0.16389326  0.79793547     0.87500
C1252       C  0.15787019  0.10451826  0.89001306     0.87600
O1253       O  0.07498642  0.85597135  0.14515456    -0.74700
O1254       O  0.13350655  0.80828865  0.07986242    -0.74700
O1255       O  0.08213710  0.78810145  0.12978841    -0.74800
O1256       O  0.12251086  0.87501812  0.09911488    -0.74800
O1257       O  0.16098398  0.86904953  0.14043547    -0.74800
O1258       O  0.11904175  0.78272104  0.17230648    -0.74700
O1259       O  0.17201798  0.80243329  0.12085602    -0.74700
O1260       O  0.11345338  0.85044927  0.18682084    -0.74800
Ni1261     Ni  0.10200803  0.83131938  0.11179026     1.25400
Ni1262     Ni  0.14293869  0.82511062  0.15628619     1.25400
C1263       C  0.08484733  0.86090328  0.17644512     0.87500
C1264       C  0.16434997  0.80366990  0.08815872     0.87400
C1265       C  0.08929456  0.77748621  0.16085745     0.87500
C1266       C  0.14832563  0.88638221  0.11497039     0.87600
O1267       O  0.86783518  0.10167839  0.17853008    -0.74700
O1268       O  0.80361824  0.15879860  0.13018593    -0.74700
O1269       O  0.80307526  0.09961750  0.18053766    -0.74800
O1270       O  0.86973789  0.15405539  0.13071701    -0.74800
O1271       O  0.87080463  0.11191685  0.08954492    -0.74800
O1272       O  0.79944977  0.06196738  0.13622069    -0.74700
O1273       O  0.80568017  0.12225570  0.08456104    -0.74700
O1274       O  0.86493503  0.05912909  0.13804599    -0.74800
Ni1275     Ni  0.83538311  0.13008029  0.15635521     1.25400
Ni1276     Ni  0.83443065  0.08741588  0.11031081     1.25400
C1277       C  0.87523757  0.07035607  0.16790417     0.87500
C1278       C  0.79921598  0.15384134  0.09719536     0.87400
C1279       C  0.79715822  0.06776375  0.16942756     0.87500
C1280       C  0.88153092  0.14132922  0.10200299     0.87600
C1281       C  0.30782853  0.03654292  0.04673316    -0.00400
C1282       C  0.31473791  0.03273104  0.08247144    -0.12300
C1283       C  0.34241942  0.04891831  0.09718181     0.01800
C1284       C  0.36413169  0.06885555  0.07568909    -0.00500
C1285       C  0.35902149  0.07012111  0.03958881    -0.12200
C1286       C  0.33094816  0.05446010  0.02489960     0.01700
H1287       H  0.29718652  0.01940053  0.09969677     0.14700
H1288       H  0.37638249  0.08457504  0.02304285     0.14700
C1289       C  0.32597103  0.05864080  0.98779525     0.36300
C1290       C  0.34572753  0.04758964  0.13477607     0.36200
N1291       N  0.32154749  0.06232155  0.95817033    -0.44000
N1292       N  0.34794018  0.04651915  0.16490330    -0.44000
C1293       C  0.20515168  0.96883131  0.06715953    -0.00400
C1294       C  0.17062005  0.96686107  0.06090843    -0.12300
C1295       C  0.15067861  0.94226359  0.07843817     0.01800
C1296       C  0.16555437  0.91826446  0.10204819    -0.00500
C1297       C  0.19924318  0.92241458  0.11071512    -0.12200
C1298       C  0.21911781  0.94740150  0.09373503     0.01700
H1299       H  0.15897764  0.98438825  0.04202159     0.14700
H1300       H  0.21069099  0.90491332  0.12976165     0.14700
C1301       C  0.25376800  0.94909613  0.10373909     0.36300
C1302       C  0.11513554  0.94294721  0.07210580     0.36200
N1303       N  0.28144382  0.95005017  0.11214063    -0.44000
N1304       N  0.08665862  0.94400910  0.06719240    -0.44000
C1305       C  0.21298528  0.04960525  0.96813243    -0.00400
C1306       C  0.21751200  0.08645946  0.96409545    -0.12300
C1307       C  0.19963821  0.10530015  0.93901904     0.01800
C1308       C  0.17736471  0.08674461  0.91713398    -0.00500
C1309       C  0.17379621  0.04965028  0.92059648    -0.12200
C1310       C  0.19118277  0.03102027  0.94595824     0.01700
H1311       H  0.23399173  0.10079421  0.98152631     0.14700
H1312       H  0.15734131  0.03498510  0.90340233     0.14700
C1313       C  0.18637014  0.99285358  0.94837282     0.36300
C1314       C  0.20349825  0.14362673  0.93759387     0.36200
N1315       N  0.18236566  0.96233947  0.95043214    -0.44000
N1316       N  0.20643062  0.17433745  0.93640395    -0.44000
C1317       C  0.20662409  0.18235601  0.30524697    -0.00400
C1318       C  0.17159227  0.18208285  0.30423076    -0.12300
C1319       C  0.15302437  0.16479824  0.32986106     0.01800
C1320       C  0.16956792  0.14783661  0.35762703    -0.00500
C1321       C  0.20460590  0.14751738  0.35858058    -0.12200
C1322       C  0.22329621  0.16455379  0.33253180     0.01700
H1323       H  0.15853490  0.19483408  0.28286082     0.14700
H1324       H  0.21734285  0.13452542  0.38002270     0.14700
C1325       C  0.25926758  0.16412244  0.33492956     0.36300
C1326       C  0.11714920  0.16342153  0.32602227     0.36200
N1327       N  0.28812105  0.16367616  0.33648182    -0.44000
N1328       N  0.08845990  0.16209285  0.32280221    -0.44000
C1329       C  0.35634739  0.16798575  0.18339841    -0.00400
C1330       C  0.33724035  0.14355406  0.20258379    -0.12300
C1331       C  0.30872031  0.15483648  0.22096510     0.01800
C1332       C  0.29954843  0.19142315  0.22067053    -0.00500
C1333       C  0.32014771  0.21599954  0.20337987    -0.12200
C1334       C  0.34826789  0.20466037  0.18479005     0.01700
H1335       H  0.34355314  0.11535645  0.20166828     0.14700
H1336       H  0.31390612  0.24423354  0.20377095     0.14700
C1337       C  0.36838799  0.23126213  0.16737947     0.36300
C1338       C  0.28838772  0.12785996  0.23752416     0.36200
N1339       N  0.38474727  0.25231315  0.15337753    -0.44000
N1340       N  0.27226336  0.10596664  0.25058185    -0.44000
C1341       C  0.06039757  0.04739386  0.36848738    -0.00400
C1342       C  0.03470736  0.06466643  0.35029988    -0.12300
C1343       C  0.01157184  0.04546471  0.33063949     0.01800
C1344       C  0.01414546  0.00776731  0.32845228    -0.00500
C1345       C  0.03975963  0.99055617  0.34703820    -0.12200
C1346       C  0.06295997  0.00977712  0.36639916     0.01700
H1347       H  0.03284849  0.09356005  0.35108205     0.14700
H1348       H  0.04233431  0.96172418  0.34582479     0.14700
C1349       C  0.08909291  0.98984984  0.38353407     0.36300
C1350       C  0.98651756  0.06579983  0.31235666     0.36200
N1351       N  0.11016177  0.97401135  0.39714538    -0.44000
N1352       N  0.96673503  0.08279045  0.29799132    -0.44000
C1353       C  0.92921501  0.99987287  0.23673168    -0.00400
C1354       C  0.91477315  0.03140865  0.24968409    -0.12300
C1355       C  0.89815524  0.05508259  0.22782850     0.01800
C1356       C  0.89375805  0.04647436  0.19193456    -0.00500
C1357       C  0.90546080  0.01337768  0.17961796    -0.12200
C1358       C  0.92340650  0.99027651  0.20128572     0.01700
H1359       H  0.91774438  0.03858670  0.27695675     0.14700
H1360       H  0.90149243  0.00590718  0.15257603     0.14700
C1361       C  0.93655475  0.95801703  0.18542057     0.36300
C1362       C  0.88699383  0.08829101  0.24350084     0.36200
N1363       N  0.94711100  0.93238365  0.17231114    -0.44000
N1364       N  0.87868344  0.11498037  0.25628971    -0.44000
C1365       C  0.01805631  0.91558400  0.24396858    -0.00400
C1366       C  0.04000463  0.93478694  0.22245469    -0.12300
C1367       C  0.06252125  0.91710256  0.20073528     0.01800
C1368       C  0.06307506  0.87970144  0.20060471    -0.00500
C1369       C  0.04159482  0.86023780  0.22253939    -0.12200
C1370       C  0.01881897  0.87813260  0.24436920     0.01700
H1371       H  0.03927018  0.96378210  0.22247310     0.14700
H1372       H  0.04223177  0.83130591  0.22210006     0.14700
C1373       C  0.99653538  0.85795391  0.26652345     0.36300
C1374       C  0.08470989  0.93775987  0.17876166     0.36200
N1375       N  0.97865927  0.84182737  0.28434766    -0.44000
N1376       N  0.10253535  0.95431153  0.16126054    -0.44000
C1377       C  0.16232513  0.32095333  0.17900196    -0.00400
C1378       C  0.16172447  0.32030690  0.21566346    -0.12300
C1379       C  0.18254849  0.29733634  0.23413446     0.01800
C1380       C  0.20428522  0.27392282  0.21579082    -0.00500
C1381       C  0.20563953  0.27518863  0.17915260    -0.12200
C1382       C  0.18489001  0.29835558  0.16062124     0.01700
H1383       H  0.14538847  0.33840391  0.23008917     0.14700
H1384       H  0.22205897  0.25708776  0.16484031     0.14700
C1385       C  0.18646976  0.29714142  0.12287910     0.36300
C1386       C  0.18166762  0.29917101  0.27188659     0.36200
N1387       N  0.18788786  0.29593668  0.09265703    -0.44000
N1388       N  0.18094340  0.30071948  0.30211240    -0.44000
C1389       C  0.99687245  0.32096462  0.02902535    -0.00400
C1390       C  0.02461512  0.33846416  0.01441103    -0.12300
C1391       C  0.05027443  0.35061093  0.03565732     0.01800
C1392       C  0.04700030  0.34766467  0.07243671    -0.00500
C1393       C  0.01622936  0.33695489  0.08667124    -0.12200
C1394       C  0.99103459  0.32410267  0.06545555     0.01700
H1395       H  0.02840895  0.33855953  0.98627791     0.14700
H1396       H  0.01206510  0.33726330  0.11474386     0.14700
C1397       C  0.96112202  0.31149596  0.08268598     0.36300
C1398       C  0.07993722  0.36415393  0.01855783     0.36200
N1399       N  0.93761017  0.30113435  0.09717004    -0.44000
N1400       N  0.10367945  0.37470036  0.00460838    -0.44000
C1401       C  0.06527341  0.19041052  0.90089551    -0.00400
C1402       C  0.07740511  0.21760827  0.92246998    -0.12300
C1403       C  0.05557480  0.23760244  0.94355862     0.01800
C1404       C  0.02084072  0.23076847  0.94245723    -0.00500
C1405       C  0.00864897  0.20525098  0.91918815    -0.12200
C1406       C  0.03040226  0.18511288  0.89844851     0.01700
H1407       H  0.10410571  0.22209942  0.92412060     0.14700
H1408       H  0.98199513  0.20028555  0.91799987     0.14700
C1409       C  0.01603010  0.15951711  0.87470895     0.36300
C1410       C  0.07000616  0.26240242  0.96807687     0.36200
N1411       N  0.00459369  0.13907211  0.85557445    -0.44000
N1412       N  0.08211274  0.28188225  0.98772491    -0.44000
C1413       C  0.94167155  0.20749402  0.03638615    -0.00400
C1414       C  0.94117326  0.21337875  0.07268556    -0.12300
C1415       C  0.92380952  0.19075208  0.09516515     0.01800
C1416       C  0.90574962  0.16193037  0.08114724    -0.00500
C1417       C  0.90862146  0.15430463  0.04520704    -0.12200
C1418       C  0.92686049  0.17639071  0.02293296     0.01700
H1419       H  0.95511398  0.23527584  0.08374704     0.14700
H1420       H  0.89575492  0.13161088  0.03413635     0.14700
C1421       C  0.93025790  0.16623787  0.98668104     0.36300
C1422       C  0.92587064  0.19730733  0.13232979     0.36200
N1423       N  0.93416152  0.15789544  0.95779476    -0.44000
N1424       N  0.92771666  0.20262986  0.16207460    -0.44000
C1425       C  0.96786770  0.27126383  0.58226658    -0.00400
C1426       C  0.98084427  0.29243119  0.60884326    -0.12300
C1427       C  0.96067757  0.31798156  0.62495931     0.01800
C1428       C  0.92663294  0.32041366  0.61594567    -0.00500
C1429       C  0.91403178  0.30035321  0.58846817    -0.12200
C1430       C  0.93503222  0.27735959  0.57010369     0.01700
H1431       H  0.00678484  0.28951325  0.61636648     0.14700
H1432       H  0.88840497  0.30422334  0.58018526     0.14700
C1433       C  0.92356715  0.26398945  0.53683404     0.36300
C1434       C  0.97556289  0.34173653  0.65001178     0.36200
N1435       N  0.91433562  0.25400948  0.50994703    -0.44000
N1436       N  0.98744658  0.36133744  0.66964301    -0.44000
C1437       C  0.92559206  0.13755751  0.46237610    -0.00400
C1438       C  0.91298832  0.15019656  0.49418906    -0.12300
C1439       C  0.93411321  0.16587643  0.51845360     0.01800
C1440       C  0.96891116  0.16913945  0.51065898    -0.00500
C1441       C  0.98181108  0.15181361  0.48107255    -0.12200
C1442       C  0.96062089  0.13652812  0.45675637     0.01700
H1443       H  0.88632500  0.14913295  0.49953934     0.14700
H1444       H  0.00843032  0.15207996  0.47575917     0.14700
C1445       C  0.97587161  0.12012712  0.42635986     0.36300
C1446       C  0.91818532  0.18066192  0.54929213     0.36200
N1447       N  0.98810380  0.10706078  0.40196041    -0.44000
N1448       N  0.90478531  0.19324497  0.57331153    -0.44000
C1449       C  0.05592440  0.26084657  0.49901922    -0.00400
C1450       C  0.06149014  0.29688672  0.50787467    -0.12300
C1451       C  0.07929080  0.31959687  0.48607988     0.01800
C1452       C  0.09490606  0.30595820  0.45556933    -0.00500
C1453       C  0.09058737  0.26967737  0.44704871    -0.12200
C1454       C  0.07073273  0.24732394  0.46791321     0.01700
H1455       H  0.05035777  0.30850030  0.53125635     0.14700
H1456       H  0.10233467  0.25873012  0.42366797     0.14700
C1457       C  0.06523990  0.21139078  0.45571056     0.36300
C1458       C  0.07918322  0.35711577  0.49521094     0.36200
N1459       N  0.06060299  0.18288724  0.44514970    -0.44000
N1460       N  0.07876019  0.38710816  0.50262697    -0.44000
C1461       C  0.95621962  0.54583602  0.30270156    -0.00400
C1462       C  0.93621155  0.56890507  0.28293615    -0.12300
C1463       C  0.91302356  0.59160763  0.29901058     0.01800
C1464       C  0.91034910  0.59216791  0.33582290    -0.00500
C1465       C  0.93100163  0.56978141  0.35561231    -0.12200
C1466       C  0.95379165  0.54672640  0.33957938     0.01700
H1467       H  0.93836294  0.56881184  0.25469035     0.14700
H1468       H  0.92931078  0.57018589  0.38394666     0.14700
C1469       C  0.97317252  0.52365620  0.36192875     0.36300
C1470       C  0.89275684  0.61401006  0.27695317     0.36200
N1471       N  0.98863861  0.50533645  0.38002484    -0.44000
N1472       N  0.87633773  0.63160477  0.25912160    -0.44000
C1473       C  0.95646122  0.45506470  0.21222935    -0.00400
C1474       C  0.96387668  0.41882724  0.20650154    -0.12300
C1475       C  0.94352020  0.39754081  0.18594926     0.01800
C1476       C  0.91582032  0.41295097  0.16878130    -0.00500
C1477       C  0.90924850  0.44949173  0.17304148    -0.12200
C1478       C  0.92895042  0.47056582  0.19464657     0.01700
H1479       H  0.98480907  0.40631307  0.21948186     0.14700
H1480       H  0.88851599  0.46181592  0.15945618     0.14700
C1481       C  0.91954706  0.50768438  0.19816827     0.36300
C1482       C  0.95102540  0.35972987  0.18475951     0.36200
N1483       N  0.91116717  0.53719968  0.20071620    -0.44000
N1484       N  0.95701112  0.32945731  0.18417879    -0.44000
C1485       C  0.08622243  0.41665125  0.34705741    -0.00400
C1486       C  0.06099096  0.39726350  0.33066338    -0.12300
C1487       C  0.03766057  0.41442903  0.30969870     0.01800
C1488       C  0.03990443  0.45170844  0.30455908    -0.00500
C1489       C  0.06509804  0.47109389  0.32114484    -0.12200
C1490       C  0.08833141  0.45390749  0.34221229     0.01700
H1491       H  0.05928919  0.36863722  0.33461782     0.14700
H1492       H  0.06675783  0.49975155  0.31740137     0.14700
C1493       C  0.11489837  0.47487703  0.35704269     0.36300
C1494       C  0.01087591  0.39327703  0.29554324     0.36200
N1495       N  0.13622506  0.49172113  0.36876167    -0.44000
N1496       N  0.98951018  0.37592858  0.28459584    -0.44000
C1497       C  0.77765814  0.45033760  0.54127079    -0.00400
C1498       C  0.81182305  0.45870403  0.54182367    -0.12300
C1499       C  0.83270862  0.44393711  0.56682259     0.01800
C1500       C  0.81901032  0.42105353  0.59226500    -0.00500
C1501       C  0.78528884  0.41088410  0.59015525    -0.12200
C1502       C  0.76467488  0.42489601  0.56457223     0.01700
H1503       H  0.82220381  0.47704740  0.52274331     0.14700
H1504       H  0.77460951  0.39259106  0.60910332     0.14700
C1505       C  0.73024211  0.41360277  0.56366963     0.36300
C1506       C  0.86798732  0.45181746  0.56497734     0.36200
N1507       N  0.70276143  0.40428192  0.56242921    -0.44000
N1508       N  0.89629963  0.45779241  0.56327040    -0.44000
C1509       C  0.75951205  0.55952917  0.47825774    -0.00400
C1510       C  0.74605207  0.57628586  0.44879217    -0.12300
C1511       C  0.76488027  0.60069033  0.42956815     0.01800
C1512       C  0.79779013  0.60852652  0.44026491    -0.00500
C1513       C  0.80864739  0.59656983  0.47285544    -0.12200
C1514       C  0.78995758  0.57249165  0.49205249     0.01700
H1515       H  0.72183130  0.56857159  0.43927657     0.14700
H1516       H  0.83281734  0.60448134  0.48280027     0.14700
C1517       C  0.80471073  0.55976608  0.52408606     0.36300
C1518       C  0.74993414  0.61626127  0.39887389     0.36200
N1519       N  0.81709678  0.54937954  0.54933747    -0.44000
N1520       N  0.73781658  0.62882626  0.37442764    -0.44000
C1521       C  0.63329510  0.41805986  0.42704630    -0.00400
C1522       C  0.63890184  0.45395948  0.41875184    -0.12300
C1523       C  0.66437375  0.47317133  0.43447071     0.01800
C1524       C  0.68433799  0.45655016  0.46013339    -0.00500
C1525       C  0.67866977  0.42029412  0.46805194    -0.12200
C1526       C  0.65391531  0.40087788  0.45144324     0.01700
H1527       H  0.62325468  0.46724845  0.39970796     0.14700
H1528       H  0.69389701  0.40647968  0.48703689     0.14700
C1529       C  0.65088693  0.36333549  0.45962511     0.36300
C1530       C  0.66937391  0.50918617  0.42231313     0.36200
N1531       N  0.64855106  0.33335512  0.46645775    -0.44000
N1532       N  0.67251716  0.53767886  0.41120030    -0.44000
C1533       C  0.80668235  0.14067401  0.35111781    -0.00400
C1534       C  0.80890935  0.13705691  0.31465763    -0.12300
C1535       C  0.78750344  0.15572288  0.29296992     0.01800
C1536       C  0.76242264  0.17760369  0.30773192    -0.00500
C1537       C  0.75784650  0.17832158  0.34422426    -0.12200
C1538       C  0.78013968  0.16045268  0.36607511     0.01700
H1539       H  0.82822863  0.12038903  0.30295049     0.14700
H1540       H  0.73863635  0.19524353  0.35584377     0.14700
C1541       C  0.77720450  0.16606892  0.40325819     0.36300
C1542       C  0.79326928  0.15391730  0.25577254     0.36200
N1543       N  0.77483302  0.17153699  0.43295317    -0.44000
N1544       N  0.79805628  0.15390522  0.22594474    -0.44000
C1545       C  0.66965161  0.26063461  0.29598192    -0.00400
C1546       C  0.66205164  0.25375347  0.33131232    -0.12300
C1547       C  0.63777792  0.27365418  0.34922313     0.01800
C1548       C  0.62049515  0.30106686  0.33158975    -0.00500
C1549       C  0.62562856  0.30518276  0.29546822    -0.12200
C1550       C  0.64995473  0.28540407  0.27757852     0.01700
H1551       H  0.67639867  0.23418970  0.34575700     0.14700
H1552       H  0.61101698  0.32447918  0.28124526     0.14700
C1553       C  0.65480831  0.29177352  0.24068509     0.36300
C1554       C  0.63279154  0.26656772  0.38599709     0.36200
N1555       N  0.65965052  0.29671961  0.21123661    -0.44000
N1556       N  0.62878713  0.26082919  0.41544828    -0.44000
C1557       C  0.76804424  0.26913388  0.21786124    -0.00400
C1558       C  0.79208418  0.24995334  0.19824794    -0.12300
C1559       C  0.81307514  0.26707231  0.17420994     0.01800
C1560       C  0.81072845  0.30436316  0.16982935    -0.00500
C1561       C  0.78658260  0.32349096  0.18933364    -0.12200
C1562       C  0.76525602  0.30640165  0.21293834     0.01700
H1563       H  0.79420272  0.22129272  0.20128536     0.14700
H1564       H  0.78428383  0.35218722  0.18627280     0.14700
C1565       C  0.74168608  0.32829840  0.23232025     0.36300
C1566       C  0.83548868  0.24551388  0.15321585     0.36200
N1567       N  0.72286060  0.34613684  0.24760655    -0.44000
N1568       N  0.85335450  0.22868809  0.13579686    -0.44000
C1569       C  0.89129515  0.57082319  0.68225291    -0.00400
C1570       C  0.91482565  0.59132310  0.70011511    -0.12300
C1571       C  0.93629818  0.57548949  0.72395662     0.01800
C1572       C  0.93302666  0.53877545  0.73136014    -0.00500
C1573       C  0.90918502  0.51839639  0.71357477    -0.12200
C1574       C  0.88910798  0.53391820  0.68830377     0.01700
H1575       H  0.91713029  0.61961480  0.69456335     0.14700
H1576       H  0.90765876  0.48984796  0.71803014     0.14700
C1577       C  0.86689123  0.51169206  0.66832721     0.36300
C1578       C  0.96349923  0.59670950  0.73707213     0.36200
N1579       N  0.84869124  0.49531801  0.65136861    -0.44000
N1580       N  0.98548227  0.61399348  0.74670708    -0.44000
C1581       C  0.02361674  0.45749220  0.71920831    -0.00400
C1582       C  0.05822806  0.45930745  0.72572085    -0.12300
C1583       C  0.08125415  0.44447841  0.70267772     0.01800
C1584       C  0.06961503  0.42539117  0.67382255    -0.00500
C1585       C  0.03568160  0.42700981  0.66498041    -0.12200
C1586       C  0.01258426  0.44326243  0.68717194     0.01700
H1587       H  0.06777166  0.47323971  0.74832912     0.14700
H1588       H  0.02676643  0.41407202  0.64145987     0.14700
C1589       C  0.97820869  0.44492550  0.67596434     0.36300
C1590       C  0.11645645  0.45019209  0.70856857     0.36200
N1591       N  0.95090774  0.44675257  0.66640293    -0.44000
N1592       N  0.14461014  0.45520926  0.71299497    -0.44000
C1593       C  0.02504870  0.53387099  0.81520907    -0.00400
C1594       C  0.05755971  0.51915659  0.81833826    -0.12300
C1595       C  0.08329598  0.53806190  0.83375461     0.01800
C1596       C  0.07611617  0.57087116  0.84987093    -0.00500
C1597       C  0.04368830  0.58548175  0.84751562    -0.12200
C1598       C  0.01847240  0.56777927  0.82985086     0.01700
H1599       H  0.06376975  0.49327288  0.80731589     0.14700
H1600       H  0.03767801  0.61092437  0.85974990     0.14700
C1601       C  0.98689242  0.58599367  0.82611831     0.36300
C1602       C  0.11679455  0.52347071  0.83187418     0.36200
N1603       N  0.96188615  0.60094009  0.82203350    -0.44000
N1604       N  0.14362445  0.51186987  0.83023772    -0.44000
C1605       C  0.31332242  0.53502817  0.53131851    -0.00400
C1606       C  0.31967901  0.52473506  0.56605995    -0.12300
C1607       C  0.34036859  0.54477118  0.58764182     0.01800
C1608       C  0.35728387  0.57463002  0.57393290    -0.00500
C1609       C  0.35202741  0.58418385  0.53886916    -0.12200
C1610       C  0.33017694  0.56501873  0.51765868     0.01700
H1611       H  0.30718833  0.50183179  0.57728793     0.14700
H1612       H  0.36492803  0.60695681  0.52788370     0.14700
C1613       C  0.32564966  0.57704568  0.48218781     0.36300
C1614       C  0.34143564  0.53561341  0.62429334     0.36200
N1615       N  0.32185923  0.58707736  0.45391166    -0.44000
N1616       N  0.34163452  0.52869831  0.65376329    -0.44000
C1617       C  0.17819027  0.40798526  0.57137878    -0.00400
C1618       C  0.19572893  0.43533958  0.58783965    -0.12300
C1619       C  0.21992269  0.45444331  0.56977996     0.01800
C1620       C  0.22739715  0.44555821  0.53458831    -0.00500
C1621       C  0.21013495  0.41769975  0.51822237    -0.12200
C1622       C  0.18566270  0.39879686  0.53655129     0.01700
H1623       H  0.18995289  0.44231820  0.61480995     0.14700
H1624       H  0.21521986  0.41143197  0.49098708     0.14700
C1625       C  0.16919063  0.36921298  0.52016820     0.36300
C1626       C  0.23407547  0.48501250  0.58728202     0.36200
N1627       N  0.15512356  0.34497495  0.50891645    -0.44000
N1628       N  0.24472327  0.50961514  0.60168621    -0.44000
C1629       C  0.37032983  0.68547012  0.68843941    -0.00400
C1630       C  0.35344360  0.71559682  0.67624718    -0.12300
C1631       C  0.33317342  0.73589047  0.69856643     0.01800
C1632       C  0.32889591  0.72546398  0.73415946    -0.00500
C1633       C  0.34846460  0.69737847  0.74696154    -0.12200
C1634       C  0.36918128  0.67757418  0.72465221     0.01700
H1635       H  0.35532378  0.72286932  0.64885839     0.14700
H1636       H  0.34672829  0.68986598  0.77427732     0.14700
C1637       C  0.38929797  0.64972511  0.73996098     0.36300
C1638       C  0.31645141  0.76620752  0.68311897     0.36200
N1639       N  0.40588595  0.62759189  0.75184523    -0.44000
N1640       N  0.30307159  0.79028423  0.67037717    -0.44000
C1641       C  0.24818718  0.70917205  0.83108944    -0.00400
C1642       C  0.22611155  0.72660258  0.85420782    -0.12300
C1643       C  0.20077253  0.70797237  0.87127742     0.01800
C1644       C  0.19751099  0.67084990  0.86621448    -0.00500
C1645       C  0.22205047  0.65277886  0.84618249    -0.12200
C1646       C  0.24726943  0.67158348  0.82857729     0.01700
H1647       H  0.22695219  0.75547958  0.85667639     0.14700
H1648       H  0.22082785  0.62401443  0.84311680     0.14700
C1649       C  0.27006422  0.65194279  0.80611185     0.36300
C1650       C  0.17821989  0.72791791  0.89333448     0.36200
N1651       N  0.28841171  0.63627315  0.78813339    -0.44000
N1652       N  0.15987970  0.74362714  0.91110157    -0.44000
C1653       C  0.22485031  0.78890210  0.73785388    -0.00400
C1654       C  0.20563038  0.81552740  0.75399009    -0.12300
C1655       C  0.18087313  0.83307353  0.73534743     0.01800
C1656       C  0.17522437  0.82364055  0.70012981    -0.00500
C1657       C  0.19361805  0.79607811  0.68442829    -0.12200
C1658       C  0.21799748  0.77813620  0.70319650     0.01700
H1659       H  0.21053893  0.82315127  0.78084399     0.14700
H1660       H  0.18893865  0.78866513  0.65746694     0.14700
C1661       C  0.23437490  0.74785229  0.68677273     0.36300
C1662       C  0.16330401  0.86221009  0.75216710     0.36200
N1663       N  0.24730043  0.72352564  0.67356313    -0.44000
N1664       N  0.14918302  0.88573727  0.76532995    -0.44000
C1665       C  0.17700523  0.57448314  0.40257326    -0.00400
C1666       C  0.16314159  0.55097858  0.42698288    -0.12300
C1667       C  0.18316537  0.53282253  0.45066493     0.01800
C1668       C  0.21833487  0.53773721  0.45001679    -0.00500
C1669       C  0.23214739  0.56233484  0.42651976    -0.12200
C1670       C  0.21194026  0.58074473  0.40289970     0.01700
H1671       H  0.13635597  0.54663559  0.42757641     0.14700
H1672       H  0.25892419  0.56658376  0.42600140     0.14700
C1673       C  0.22814557  0.60479982  0.37870662     0.36300
C1674       C  0.16635346  0.51008267  0.47568692     0.36200
N1675       N  0.24123381  0.62415162  0.35948717    -0.44000
N1676       N  0.15279886  0.49184066  0.49560061    -0.44000
C1677       C  0.02650168  0.72168636  0.43708861    -0.00400
C1678       C  0.01166819  0.69545788  0.41624815    -0.12300
C1679       C  0.03080235  0.67415093  0.39404240     0.01800
C1680       C  0.06555206  0.68035826  0.39067651    -0.00500
C1681       C  0.07973505  0.70945097  0.40797509    -0.12200
C1682       C  0.06076806  0.72992194  0.43151389     0.01700
H1683       H  0.98524056  0.68966464  0.41903668     0.14700
H1684       H  0.10616294  0.71487750  0.40473441     0.14700
C1685       C  0.07802439  0.75738812  0.45074155     0.36300
C1686       C  0.01381895  0.64543482  0.37624172     0.36200
N1687       N  0.09211151  0.77917341  0.46617747    -0.44000
N1688       N  0.99991792  0.62248449  0.36230992    -0.44000
C1689       C  0.93832831  0.70096689  0.52216781    -0.00400
C1690       C  0.94844587  0.67084035  0.54094978    -0.12300
C1691       C  0.92548719  0.65232789  0.56139292     0.01800
C1692       C  0.89229070  0.66457270  0.56314466    -0.00500
C1693       C  0.88181027  0.69363078  0.54298438    -0.12200
C1694       C  0.90475106  0.71187263  0.52219714     0.01700
H1695       H  0.97458206  0.66296860  0.54102196     0.14700
H1696       H  0.85593205  0.70231430  0.54393507     0.14700
C1697       C  0.89372465  0.74195141  0.50170986     0.36300
C1698       C  0.93680462  0.62234551  0.58191407     0.36200
N1699       N  0.88502833  0.76583525  0.48490200    -0.44000
N1700       N  0.94580339  0.59837652  0.59844080    -0.44000
C1701       C  0.02320247  0.78752245  0.54597666    -0.00400
C1702       C  0.03352597  0.77215708  0.57741405    -0.12300
C1703       C  0.05569032  0.79028410  0.59888694     0.01800
C1704       C  0.06832194  0.82344340  0.58799507    -0.00500
C1705       C  0.05708202  0.83919789  0.55696553    -0.12200
C1706       C  0.03377463  0.82169356  0.53643229     0.01700
H1707       H  0.02506832  0.74567380  0.58460140     0.14700
H1708       H  0.06556346  0.86555724  0.54951986     0.14700
C1709       C  0.01877033  0.83927893  0.50692402     0.36300
C1710       C  0.06567412  0.77423640  0.63145655     0.36200
N1711       N  0.00468432  0.85158262  0.48357197    -0.44000
N1712       N  0.07362536  0.76159250  0.65767892    -0.44000
C1713       C  0.68433052  0.36709249  0.67888541    -0.00400
C1714       C  0.69761376  0.38439676  0.70815093    -0.12300
C1715       C  0.72503120  0.36998232  0.72525345     0.01800
C1716       C  0.73798560  0.33701098  0.71418200    -0.00500
C1717       C  0.72597108  0.32066631  0.68377035    -0.12200
C1718       C  0.69965631  0.33596113  0.66551760     0.01700
H1719       H  0.68728640  0.40974538  0.71689441     0.14700
H1720       H  0.73598140  0.29504339  0.67530658     0.14700
C1721       C  0.68821527  0.31872495  0.63398923     0.36300
C1722       C  0.74096445  0.39007433  0.75258046     0.36200
N1723       N  0.67931569  0.30491824  0.60863632    -0.44000
N1724       N  0.75481849  0.40638871  0.77362945    -0.44000
C1725       C  0.73164363  0.25813044  0.81202766    -0.00400
C1726       C  0.74427520  0.22759390  0.82847475    -0.12300
C1727       C  0.72343633  0.20465973  0.84700476     0.01800
C1728       C  0.68877405  0.21210034  0.84975655    -0.00500
C1729       C  0.67668025  0.24446848  0.83630487    -0.12200
C1730       C  0.69765253  0.26761286  0.81782655     0.01700
H1731       H  0.77051331  0.22060327  0.82567355     0.14700
H1732       H  0.65053109  0.25156594  0.83964146     0.14700
C1733       C  0.68296128  0.30010236  0.80454442     0.36300
C1734       C  0.73890889  0.17381281  0.86259251     0.36200
N1735       N  0.67107124  0.32609760  0.79395992    -0.44000
N1736       N  0.75172718  0.14916257  0.87479072    -0.44000
C1737       C  0.81981391  0.24320691  0.72478174    -0.00400
C1738       C  0.83294970  0.21472391  0.74431326    -0.12300
C1739       C  0.85329059  0.18872715  0.72870135     0.01800
C1740       C  0.86128270  0.19119846  0.69278056    -0.00500
C1741       C  0.84866223  0.21991161  0.67339189    -0.12200
C1742       C  0.82814058  0.24570343  0.68873654     0.01700
H1743       H  0.82700691  0.21235673  0.77193541     0.14700
H1744       H  0.85457717  0.22221311  0.64573964     0.14700
C1745       C  0.81543568  0.27327241  0.66596000     0.36300
C1746       C  0.86580575  0.16026244  0.75039485     0.36200
N1747       N  0.80533568  0.29508534  0.64740276    -0.44000
N1748       N  0.87604162  0.13739160  0.76757958    -0.44000
C1749       C  0.38967161  0.17658967  0.58104951    -0.00400
C1750       C  0.40723321  0.15971805  0.55362930    -0.12300
C1751       C  0.43165483  0.17779534  0.53437103     0.01800
C1752       C  0.43896349  0.21392135  0.54246061    -0.00500
C1753       C  0.42008452  0.23122344  0.56866397    -0.12200
C1754       C  0.39577553  0.21314991  0.58787833     0.01700
H1755       H  0.40245209  0.13189568  0.54758264     0.14700
H1756       H  0.42463543  0.25907605  0.57478218     0.14700
C1757       C  0.37779762  0.23325535  0.61434993     0.36300
C1758       C  0.44913537  0.15778063  0.50743194     0.36200
N1759       N  0.36363603  0.24949323  0.63563343    -0.44000
N1760       N  0.46299638  0.14151747  0.48591927    -0.44000
C1761       C  0.53403740  0.21917766  0.46144762    -0.00400
C1762       C  0.56547633  0.20735008  0.47254136    -0.12300
C1763       C  0.58758492  0.19139238  0.44890958     0.01800
C1764       C  0.57790601  0.18745601  0.41397076    -0.00500
C1765       C  0.54668242  0.19973864  0.40276199    -0.12200
C1766       C  0.52474288  0.21606193  0.42634339     0.01700
H1767       H  0.57254557  0.21034934  0.49971113     0.14700
H1768       H  0.53956093  0.19659834  0.37563772     0.14700
C1769       C  0.49378069  0.23107400  0.41394314     0.36300
C1770       C  0.61946098  0.17835809  0.46106885     0.36200
N1771       N  0.46916544  0.24385527  0.40433333    -0.44000
N1772       N  0.64501009  0.16787443  0.47069610    -0.44000
C1773       C  0.52183148  0.31014462  0.54832775    -0.00400
C1774       C  0.54000474  0.33480726  0.52831599    -0.12300
C1775       C  0.56240277  0.35802821  0.54399415     0.01800
C1776       C  0.56657278  0.35701847  0.58054360    -0.00500
C1777       C  0.54695852  0.33367030  0.60070669    -0.12200
C1778       C  0.52477797  0.31019405  0.58498653     0.01700
H1779       H  0.53767151  0.33491035  0.50005535     0.14700
H1780       H  0.54956640  0.33303971  0.62890786     0.14700
C1781       C  0.50741994  0.28490272  0.60696444     0.36300
C1782       C  0.58037185  0.38252742  0.52183219     0.36200
N1783       N  0.49358354  0.26471334  0.62471556    -0.44000
N1784       N  0.59470493  0.40215409  0.50396450    -0.44000
C1785       C  0.68837311  0.08342321  0.41154543    -0.00400
C1786       C  0.70999680  0.10251805  0.43318922    -0.12300
C1787       C  0.73319510  0.08472592  0.45381125     0.01800
C1788       C  0.73536430  0.04702114  0.45214120    -0.00500
C1789       C  0.71481350  0.02825317  0.42902026    -0.12200
C1790       C  0.69105718  0.04598814  0.40933335     0.01700
H1791       H  0.70819993  0.13141166  0.43463321     0.14700
H1792       H  0.71636034  0.99935324  0.42729401     0.14700
C1793       C  0.66972205  0.02512216  0.38716597     0.36300
C1794       C  0.75273083  0.10583511  0.47770952     0.36200
N1795       N  0.65185109  0.00924885  0.36947177    -0.44000
N1796       N  0.76838915  0.12267212  0.49692019    -0.44000
C1797       C  0.73402016  0.94604035  0.52969171    -0.00400
C1798       C  0.70353997  0.93753613  0.51367825    -0.12300
C1799       C  0.68027289  0.91556289  0.53008561     0.01800
C1800       C  0.68750530  0.90111088  0.56324093    -0.00500
C1801       C  0.71922885  0.90700105  0.57771592    -0.12200
C1802       C  0.74249689  0.92891442  0.56123776     0.01700
H1803       H  0.69689562  0.94940562  0.48885415     0.14700
H1804       H  0.72598057  0.89481568  0.60236592     0.14700
C1805       C  0.77441714  0.93380542  0.57783534     0.36300
C1806       C  0.64911514  0.90935567  0.51233007     0.36200
N1807       N  0.80006781  0.93840114  0.59074088    -0.44000
N1808       N  0.62423216  0.90449032  0.49794056    -0.44000
C1809       C  0.81513981  0.04058280  0.54665613    -0.00400
C1810       C  0.80292348  0.06552437  0.57106147    -0.12300
C1811       C  0.82488851  0.08332110  0.59306518     0.01800
C1812       C  0.85928305  0.07608056  0.59015437    -0.00500
C1813       C  0.87142353  0.05103930  0.56586770    -0.12200
C1814       C  0.84943522  0.03304008  0.54412430     0.01700
H1815       H  0.77631495  0.07103447  0.57282603     0.14700
H1816       H  0.89804954  0.04580416  0.56376100     0.14700
C1817       C  0.86238175  0.00739585  0.51912813     0.36300
C1818       C  0.81185417  0.10895424  0.61809956     0.36200
N1819       N  0.87246713  0.98676732  0.49900958    -0.44000
N1820       N  0.80148089  0.12943755  0.63822512    -0.44000
C1821       C  0.44097902  0.03571557  0.72877436    -0.00400
C1822       C  0.43493919  0.07216300  0.73553609    -0.12300
C1823       C  0.40939295  0.09063887  0.71874127     0.01800
C1824       C  0.38889982  0.07246788  0.69480637    -0.00500
C1825       C  0.39274545  0.03532585  0.69070267    -0.12200
C1826       C  0.41833801  0.01682641  0.70757737     0.01700
H1827       H  0.45154767  0.08711924  0.75228624     0.14700
H1828       H  0.37616100  0.02074173  0.67357813     0.14700
C1829       C  0.42093776  0.97872513  0.70221866     0.36300
C1830       C  0.40675853  0.12867274  0.72467103     0.36200
N1831       N  0.42327024  0.94821755  0.69786918    -0.44000
N1832       N  0.40488118  0.15915617  0.72943543    -0.44000
C1833       C  0.54339428  0.05012501  0.79544381    -0.00400
C1834       C  0.52678881  0.07180541  0.82012914    -0.12300
C1835       C  0.54446968  0.09474478  0.84184643     0.01800
C1836       C  0.57954409  0.09693829  0.83851377    -0.00500
C1837       C  0.59631336  0.07493900  0.81435838    -0.12200
C1838       C  0.57874727  0.05156259  0.79290959     0.01700
H1839       H  0.49982807  0.07042697  0.82296862     0.14700
H1840       H  0.62334913  0.07600320  0.81225346     0.14700
C1841       C  0.59796644  0.03019162  0.76835242     0.36300
C1842       C  0.52611220  0.11367593  0.86886455     0.36200
N1843       N  0.61356398  0.01306043  0.74887406    -0.44000
N1844       N  0.51133488  0.12841143  0.89073450    -0.44000
C1845       C  0.57749709  0.90632117  0.67053579    -0.00400
C1846       C  0.55004572  0.92355957  0.65509587    -0.12300
C1847       C  0.52976608  0.94721769  0.67411509     0.01800
C1848       C  0.53669085  0.95397842  0.70965116    -0.00500
C1849       C  0.56373787  0.93633167  0.72526622    -0.12200
C1850       C  0.58420241  0.91295187  0.70623264     0.01700
H1851       H  0.54445257  0.91892595  0.62777063     0.14700
H1852       H  0.56933636  0.94124784  0.75256374     0.14700
C1853       C  0.61184804  0.89669231  0.72436259     0.36300
C1854       C  0.50320981  0.96519244  0.65575509     0.36200
N1855       N  0.63409002  0.88403309  0.73902764    -0.44000
N1856       N  0.48204348  0.97948220  0.64076355    -0.44000
C1857       C  0.37398451  0.57195088  0.19347898    -0.00400
C1858       C  0.39581212  0.58971399  0.21570592    -0.12300
C1859       C  0.41749971  0.57041860  0.23690066     0.01800
C1860       C  0.41671616  0.53246299  0.23626292    -0.00500
C1861       C  0.39242876  0.51511051  0.21656135    -0.12200
C1862       C  0.37141497  0.53448663  0.19497191     0.01700
H1863       H  0.39751653  0.61858267  0.21467581     0.14700
H1864       H  0.39117297  0.48616902  0.21644046     0.14700
C1865       C  0.34803772  0.51512791  0.17397049     0.36300
C1866       C  0.44199865  0.59050391  0.25619579     0.36200
N1867       N  0.32922527  0.49963082  0.15709579    -0.44000
N1868       N  0.46168105  0.60662389  0.27152018    -0.44000
C1869       C  0.54621106  0.40089871  0.17525775    -0.00400
C1870       C  0.51702025  0.41552579  0.16085020    -0.12300
C1871       C  0.49390452  0.43421100  0.18194043     0.01800
C1872       C  0.49965776  0.43746841  0.21830851    -0.00500
C1873       C  0.52666859  0.41912059  0.23287844    -0.12200
C1874       C  0.55042790  0.40230880  0.21197726     0.01700
H1875       H  0.51282348  0.41349938  0.13293913     0.14700
H1876       H  0.53085288  0.42032886  0.26086826     0.14700
C1877       C  0.57959605  0.38858281  0.22946020     0.36300
C1878       C  0.46561801  0.45074619  0.16519926     0.36200
N1879       N  0.60340027  0.37852339  0.24328996    -0.44000
N1880       N  0.44295126  0.46382187  0.15159247    -0.44000
C1881       C  0.43019975  0.73241358  0.04888918    -0.00400
C1882       C  0.40562270  0.74789512  0.07049803    -0.12300
C1883       C  0.38503484  0.72665430  0.09135031     0.01800
C1884       C  0.38886135  0.68910513  0.09014280    -0.00500
C1885       C  0.41530223  0.67403903  0.07078287    -0.12200
C1886       C  0.43626687  0.69528956  0.05065369     0.01700
H1887       H  0.40203241  0.77660084  0.07050619     0.14700
H1888       H  0.41936303  0.64536012  0.07097506     0.14700
C1889       C  0.46461692  0.67828974  0.03370532     0.36300
C1890       C  0.35954880  0.74417620  0.11230191     0.36200
N1891       N  0.48742504  0.66434195  0.02066194    -0.44000
N1892       N  0.33927104  0.75842224  0.12910086    -0.44000
C1893       C  0.50716716  0.83050632  0.04141533    -0.00400
C1894       C  0.53146683  0.84890660  0.02186457    -0.12300
C1895       C  0.55932247  0.86347604  0.03790551     0.01800
C1896       C  0.56309721  0.85999348  0.07436035    -0.00500
C1897       C  0.53786919  0.84379032  0.09420516    -0.12200
C1898       C  0.50964824  0.82986687  0.07834643     0.01700
H1899       H  0.52948316  0.85059890  0.99364002     0.14700
H1900       H  0.53986997  0.84271214  0.12246585     0.14700
C1901       C  0.48418984  0.81512087  0.10103253     0.36300
C1902       C  0.58289729  0.88267110  0.01634419     0.36200
N1903       N  0.46385012  0.80354695  0.11942057    -0.44000
N1904       N  0.60160976  0.89821880  0.99900335    -0.44000
C1905       C  0.55709221  0.70209238  0.91849247    -0.00400
C1906       C  0.52497724  0.68818325  0.92437644    -0.12300
C1907       C  0.49961771  0.70875733  0.93938166     0.01800
C1908       C  0.50644323  0.74394949  0.95047449    -0.00500
C1909       C  0.53773151  0.75887921  0.94195178    -0.12200
C1910       C  0.56307784  0.73827218  0.92661739     0.01700
H1911       H  0.51946467  0.66070783  0.91765250     0.14700
H1912       H  0.54346717  0.78611137  0.94943981     0.14700
C1913       C  0.59531563  0.75459129  0.92156542     0.36300
C1914       C  0.46747542  0.69209552  0.94428682     0.36200
N1915       N  0.62136637  0.76732847  0.91789483    -0.44000
N1916       N  0.44198505  0.67834199  0.94875572    -0.44000
C1917       C  0.71595809  0.43280948  0.02830552    -0.00400
C1918       C  0.69683296  0.40618136  0.01310021    -0.12300
C1919       C  0.67016038  0.39144955  0.03123564     0.01800
C1920       C  0.66304004  0.40305425  0.06562085    -0.00500
C1921       C  0.68253517  0.42951939  0.08110987    -0.12200
C1922       C  0.70859934  0.44500813  0.06250984     0.01700
H1923       H  0.70220056  0.39783296  0.98661264     0.14700
H1924       H  0.67719817  0.43822258  0.10769089     0.14700
C1925       C  0.72562341  0.47489493  0.07825703     0.36300
C1926       C  0.65115448  0.36403219  0.01414825     0.36200
N1927       N  0.73885619  0.49891943  0.09114564    -0.44000
N1928       N  0.63576900  0.34214763  0.00044648    -0.44000
C1929       C  0.81342456  0.50425705  0.01951958    -0.00400
C1930       C  0.82831467  0.53490896  0.00560836    -0.12300
C1931       C  0.84616093  0.55805726  0.02677921     0.01800
C1932       C  0.85108789  0.54930938  0.06237924    -0.00500
C1933       C  0.84059581  0.51595786  0.07468691    -0.12200
C1934       C  0.82187028  0.49338080  0.05380462     0.01700
H1935       H  0.82359538  0.54240493  0.97878724     0.14700
H1936       H  0.84588089  0.50786733  0.10128846     0.14700
C1937       C  0.80985722  0.46090546  0.06976676     0.36300
C1938       C  0.85720704  0.59120368  0.01135953     0.36200
N1939       N  0.80000323  0.43517948  0.08292039    -0.44000
N1940       N  0.86578207  0.61791131  0.99915697    -0.44000
C1941       C  0.71241226  0.53403537  0.95704139    -0.00400
C1942       C  0.67754279  0.52870774  0.95933043    -0.12300
C1943       C  0.65508583  0.55451676  0.94804251     0.01800
C1944       C  0.66734017  0.58604428  0.93295255    -0.00500
C1945       C  0.70184545  0.59253777  0.93262904    -0.12200
C1946       C  0.72440599  0.56702616  0.94437880     0.01700
H1947       H  0.66736440  0.50439024  0.97033185     0.14700
H1948       H  0.71160139  0.61689896  0.92122972     0.14700
C1949       C  0.75938661  0.57588616  0.94212961     0.36300
C1950       C  0.61973283  0.54793213  0.95244763     0.36200
N1951       N  0.78711867  0.58423890  0.94020217    -0.44000
N1952       N  0.59144666  0.54265641  0.95609628    -0.44000
C1953       C  0.55835625  0.57659164  0.34040120    -0.00400
C1954       C  0.57165831  0.55291441  0.31558490    -0.12300
C1955       C  0.55100862  0.52956864  0.29754409     0.01800
C1956       C  0.51628129  0.52909839  0.30522872    -0.00500
C1957       C  0.50315373  0.55257100  0.33049886    -0.12200
C1958       C  0.52369719  0.57648139  0.34783692     0.01700
H1959       H  0.59828639  0.55302283  0.30994501     0.14700
H1960       H  0.47657014  0.55266067  0.33633256     0.14700
C1961       C  0.50857379  0.59960514  0.37391262     0.36300
C1962       C  0.56621852  0.50827327  0.27007360     0.36200
N1963       N  0.49661539  0.61816032  0.39484674    -0.44000
N1964       N  0.57868787  0.49155271  0.24799199    -0.44000
C1965       C  0.72105184  0.71759423  0.30232138    -0.00400
C1966       C  0.70474847  0.68765494  0.28870391    -0.12300
C1967       C  0.67924132  0.67125226  0.30758623     0.01800
C1968       C  0.66995675  0.68490402  0.34060441    -0.00500
C1969       C  0.68698119  0.71410227  0.35477109    -0.12200
C1970       C  0.71239118  0.73069837  0.33568375     0.01700
H1971       H  0.71082079  0.67818099  0.26254497     0.14700
H1972       H  0.68118651  0.72314410  0.38110526     0.14700
C1973       C  0.72996340  0.76038001  0.35094283     0.36300
C1974       C  0.66231604  0.64105008  0.29230545     0.36200
N1975       N  0.74448741  0.78391786  0.36309492    -0.44000
N1976       N  0.64863138  0.61694547  0.28010544    -0.44000
C1977       C  0.83990483  0.67267992  0.16725148    -0.00400
C1978       C  0.85208360  0.68827508  0.19787226    -0.12300
C1979       C  0.83220412  0.71151438  0.21754641     0.01800
C1980       C  0.79970314  0.71936631  0.20637313    -0.00500
C1981       C  0.78791089  0.70499047  0.17488030    -0.12200
C1982       C  0.80787772  0.68150007  0.15519655     0.01700
H1983       H  0.87711328  0.68201829  0.20655963     0.14700
H1984       H  0.76264929  0.71088103  0.16654883     0.14700
C1985       C  0.79452444  0.66531260  0.12403538     0.36300
C1986       C  0.84566453  0.72737251  0.24879366     0.36200
N1987       N  0.78378726  0.65214438  0.09916741    -0.44000
N1988       N  0.85640405  0.74051929  0.27364647    -0.44000
C1989       C  0.71454832  0.80967634  0.21992361    -0.00400
C1990       C  0.69100216  0.79492808  0.19729644    -0.12300
C1991       C  0.66821289  0.81674274  0.18030413     0.01800
C1992       C  0.66912165  0.85375905  0.18595124    -0.00500
C1993       C  0.69155737  0.86842148  0.21000131    -0.12200
C1994       C  0.71433535  0.84642758  0.22725238     0.01700
H1995       H  0.69064766  0.76630040  0.19274651     0.14700
H1996       H  0.69236741  0.89707033  0.21397117     0.14700
C1997       C  0.73798841  0.86198443  0.25107672     0.36300
C1998       C  0.64425285  0.80078509  0.15704788     0.36200
N1999       N  0.75708359  0.87429132  0.27012385    -0.44000
N2000       N  0.62482645  0.78804118  0.13865857    -0.44000
C2001       C  0.26888468  0.55574354  0.95741968    -0.00400
C2002       C  0.28673579  0.54127466  0.92905755    -0.12300
C2003       C  0.31347700  0.55988401  0.91452394     0.01800
C2004       C  0.32271370  0.59288597  0.92910814    -0.00500
C2005       C  0.30445220  0.60747251  0.95720752    -0.12200
C2006       C  0.27713125  0.58932470  0.97096499     0.01700
H2007       H  0.28086684  0.51474769  0.91948745     0.14700
H2008       H  0.31079781  0.63345250  0.96757579     0.14700
C2009       C  0.25726187  0.60502539  0.99879738     0.36300
C2010       C  0.33173213  0.54427522  0.88547192     0.36200
N2011       N  0.24016614  0.61624884  0.02083148    -0.44000
N2012       N  0.34640953  0.53167670  0.86227814    -0.44000
C2013       C  0.18378521  0.46461946  0.96834549    -0.00400
C2014       C  0.15902913  0.48316536  0.95028364    -0.12300
C2015       C  0.13482464  0.46486298  0.93187801     0.01800
C2016       C  0.13573732  0.42724623  0.93058878    -0.00500
C2017       C  0.15973070  0.40847363  0.94973899    -0.12200
C2018       C  0.18379071  0.42690356  0.96877423     0.01700
H2019       H  0.15873145  0.51211457  0.95048455     0.14700
H2020       H  0.16020565  0.37951113  0.94906988     0.14700
C2021       C  0.20914010  0.40656311  0.98666750     0.36300
C2022       C  0.10836001  0.48515336  0.91590457     0.36200
N2023       N  0.22944612  0.39027193  0.00101741    -0.44000
N2024       N  0.08639110  0.50057575  0.90350848    -0.44000
C2025       C  0.26849709  0.48108970  0.05787440    -0.00400
C2026       C  0.25392592  0.45349328  0.07721131    -0.12300
C2027       C  0.27303886  0.43238791  0.09913061     0.01800
C2028       C  0.30761670  0.43930146  0.10252089    -0.00500
C2029       C  0.32174677  0.46847959  0.08531135    -0.12200
C2030       C  0.30259489  0.48976576  0.06343599     0.01700
H2031       H  0.22770200  0.44717600  0.07398864     0.14700
H2032       H  0.34809061  0.47430206  0.08844137     0.14700
C2033       C  0.31951679  0.51902304  0.04629790     0.36300
C2034       C  0.25620148  0.40360913  0.11714254     0.36200
N2035       N  0.33331515  0.54235918  0.03272344    -0.44000
N2036       N  0.24258567  0.38052219  0.13130932    -0.44000
C2037       C  0.56601296  0.47970391  0.76580006    -0.00400
C2038       C  0.58051775  0.49852338  0.79376092    -0.12300
C2039       C  0.60097089  0.48151016  0.81772759     0.01800
C2040       C  0.60911431  0.44524984  0.81280490    -0.00500
C2041       C  0.59703402  0.42717538  0.78326235    -0.12200
C2042       C  0.57553132  0.44379862  0.75993046     0.01700
H2043       H  0.57434218  0.52641331  0.79829873     0.14700
H2044       H  0.60360026  0.39937885  0.77874320     0.14700
C2045       C  0.56320452  0.42230372  0.73152101     0.36300
C2046       C  0.61228982  0.50188423  0.84741407     0.36200
N2047       N  0.55435739  0.40374422  0.70925523    -0.44000
N2048       N  0.62128422  0.51806558  0.87132564    -0.44000
C2049       C  0.47144858  0.55714657  0.78024333    -0.00400
C2050       C  0.48632218  0.58550489  0.79791477    -0.12300
C2051       C  0.46748933  0.60625988  0.82096872     0.01800
C2052       C  0.43333148  0.59862152  0.82589603    -0.00500
C2053       C  0.41875804  0.56952919  0.80929176    -0.12200
C2054       C  0.43767937  0.54821521  0.78695371     0.01700
H2055       H  0.51246286  0.59167449  0.79332383     0.14700
H2056       H  0.39261111  0.56345234  0.81392384     0.14700
C2057       C  0.42219311  0.51651334  0.77290700     0.36300
C2058       C  0.48341206  0.63593306  0.83809064     0.36200
N2059       N  0.40973306  0.49103969  0.76197241    -0.44000
N2060       N  0.49620782  0.65964138  0.85190144    -0.44000
C2061       C  0.47106755  0.47702047  0.68407305    -0.00400
C2062       C  0.47917000  0.44159549  0.67582177    -0.12300
C2063       C  0.45570950  0.41888542  0.66106984     0.01800
C2064       C  0.42331047  0.43202705  0.65337893    -0.00500
C2065       C  0.41599724  0.46805509  0.65945813    -0.12200
C2066       C  0.43930615  0.49060433  0.67429055     0.01700
H2067       H  0.50335544  0.43093943  0.68245394     0.14700
H2068       H  0.39180331  0.47892013  0.65259790     0.14700
C2069       C  0.42858249  0.52688744  0.68096451     0.36300
C2070       C  0.46592862  0.38234172  0.65476359     0.36200
N2071       N  0.41969231  0.55553862  0.68771589    -0.44000
N2072       N  0.47418556  0.35309440  0.64976994    -0.44000
C2073       C  0.60095309  0.33368434  0.91552709    -0.00400
C2074       C  0.61152851  0.30372018  0.93431843    -0.12300
C2075       C  0.59069491  0.28904523  0.95982156     0.01800
C2076       C  0.55857158  0.30330192  0.96504313    -0.00500
C2077       C  0.54757347  0.33247887  0.94545260    -0.12200
C2078       C  0.56880274  0.34819652  0.92106782     0.01700
H2079       H  0.63699541  0.29398229  0.93140453     0.14700
H2080       H  0.52237933  0.34277201  0.94908722     0.14700
C2081       C  0.55757271  0.37970297  0.90272109     0.36300
C2082       C  0.60365512  0.26247850  0.98340489     0.36200
N2083       N  0.54871614  0.40504993  0.88817190    -0.44000
N2084       N  0.61358176  0.24207670  0.00349875    -0.44000
C2085       C  0.46590611  0.30403033  0.04933985    -0.00400
C2086       C  0.43432323  0.28866177  0.05532347    -0.12300
C2087       C  0.41068577  0.30489791  0.07690506     0.01800
C2088       C  0.41887919  0.33669322  0.09458057    -0.00500
C2089       C  0.45003504  0.35275491  0.08798769    -0.12200
C2090       C  0.47328959  0.33717284  0.06517773     0.01700
H2091       H  0.42738754  0.26394674  0.04252004     0.14700
H2092       H  0.45648515  0.37767011  0.10074354     0.14700
C2093       C  0.50386668  0.35639916  0.05837808     0.36300
C2094       C  0.37814390  0.28845615  0.07931303     0.36200
N2095       N  0.52801335  0.37230992  0.05263150    -0.44000
N2096       N  0.35211343  0.27520538  0.08096370    -0.44000
C2097       C  0.47860630  0.20962562  0.96572622    -0.00400
C2098       C  0.45113859  0.19297205  0.98176931    -0.12300
C2099       C  0.42652745  0.17659761  0.96199061     0.01800
C2100       C  0.42949541  0.17600793  0.92511221    -0.00500
C2101       C  0.45805739  0.19070594  0.90927022    -0.12200
C2102       C  0.48279322  0.20683245  0.92903073     0.01700
H2103       H  0.44789129  0.19442826  0.00994979     0.14700
H2104       H  0.46136304  0.18945234  0.88110390     0.14700
C2105       C  0.51136085  0.22100183  0.91034702     0.36300
C2106       C  0.39854915  0.16128112  0.98062216     0.36200
N2107       N  0.53421156  0.23215719  0.89523406    -0.44000
N2108       N  0.37604266  0.14939644  0.99571243    -0.44000
C2109       C  0.31631574  0.16518564  0.81124182    -0.00400
C2110       C  0.32769868  0.18495299  0.78267296    -0.12300
C2111       C  0.30517587  0.20139624  0.76025555     0.01800
C2112       C  0.27022987  0.19785273  0.76642278    -0.00500
C2113       C  0.25904497  0.17597258  0.79362115    -0.12200
C2114       C  0.28155701  0.15970634  0.81604026     0.01700
H2115       H  0.35432512  0.18843052  0.77840967     0.14700
H2116       H  0.23246127  0.17232224  0.79800248     0.14700
C2117       C  0.26794433  0.13714432  0.84324248     0.36300
C2118       C  0.31921616  0.22314024  0.73268663     0.36200
N2119       N  0.25694316  0.11913551  0.86498693    -0.44000
N2120       N  0.33072893  0.24053737  0.71075322    -0.44000
C2121       C  0.25382733  0.28908605  0.68419542    -0.00400
C2122       C  0.26626820  0.32036486  0.69946715    -0.12300
C2123       C  0.29218151  0.33897699  0.68342223     0.01800
C2124       C  0.30638030  0.32545392  0.65228752    -0.00500
C2125       C  0.29346715  0.29457679  0.63687205    -0.12200
C2126       C  0.26661092  0.27693271  0.65210601     0.01700
H2127       H  0.25697126  0.32915149  0.72483576     0.14700
H2128       H  0.30361616  0.28490017  0.61241257     0.14700
C2129       C  0.25127153  0.24758522  0.63390361     0.36300
C2130       C  0.30463612  0.37096859  0.69992151     0.36200
N2131       N  0.23793414  0.22480658  0.61916353    -0.44000
N2132       N  0.31461879  0.39662544  0.71305468    -0.44000
C2133       C  0.17307952  0.27706305  0.77699416    -0.00400
C2134       C  0.15458551  0.30481231  0.76165632    -0.12300
C2135       C  0.13352229  0.32659197  0.78148821     0.01800
C2136       C  0.12942355  0.32010212  0.81756929    -0.00500
C2137       C  0.14613875  0.29101765  0.83268785    -0.12200
C2138       C  0.16810651  0.26970685  0.81299912     0.01700
H2139       H  0.15735288  0.31055109  0.73401366     0.14700
H2140       H  0.14284892  0.28548206  0.86033114     0.14700
C2141       C  0.18591638  0.24187595  0.83123375     0.36300
C2142       C  0.11637486  0.35518991  0.76376032     0.36200
N2143       N  0.20007557  0.21985527  0.84634820    -0.44000
N2144       N  0.10222228  0.37794283  0.74977192    -0.44000
C2145       C  0.43447241  0.81244760  0.51127853    -0.00400
C2146       C  0.40025065  0.80637928  0.51663533    -0.12300
C2147       C  0.38465248  0.81611050  0.54800699     0.01800
C2148       C  0.40370284  0.83181621  0.57473805    -0.00500
C2149       C  0.43803606  0.83719720  0.56962150    -0.12200
C2150       C  0.45357905  0.82777965  0.53825014     0.01700
H2151       H  0.38547609  0.79469894  0.49593507     0.14700
H2152       H  0.45288604  0.84879035  0.59032374     0.14700
C2153       C  0.48920774  0.83333875  0.53513427     0.36300
C2154       C  0.34895887  0.81137979  0.55117375     0.36200
N2155       N  0.51771120  0.83797432  0.53276559    -0.44000
N2156       N  0.32033274  0.80767265  0.55346228    -0.44000
C2157       C  0.26000410  0.97964745  0.58233878    -0.00400
C2158       C  0.24587470  0.95042428  0.59977190    -0.12300
C2159       C  0.26602525  0.92717646  0.61871092     0.01800
C2160       C  0.30056679  0.93431468  0.62124375    -0.00500
C2161       C  0.31253084  0.96774843  0.61083396    -0.12200
C2162       C  0.29251047  0.99078114  0.59181208     0.01700
H2163       H  0.22005224  0.94349547  0.59530486     0.14700
H2164       H  0.33836748  0.97500388  0.61523361     0.14700
C2165       C  0.30792874  0.02308428  0.57901351     0.36300
C2166       C  0.25082157  0.89576681  0.63370225     0.36200
N2167       N  0.32069820  0.04854014  0.56837445    -0.44000
N2168       N  0.23878336  0.87055879  0.64576851    -0.44000
C2169       C  0.28065344  0.03919675  0.47462656    -0.00400
C2170       C  0.30004267  0.02387418  0.44771286    -0.12300
C2171       C  0.32509689  0.04361449  0.43152468     0.01800
C2172       C  0.33125113  0.07852056  0.44318661    -0.00500
C2173       C  0.31209855  0.09370449  0.47026857    -0.12200
C2174       C  0.28627795  0.07443696  0.48552952     0.01700
H2175       H  0.29591774  0.99644061  0.43970749     0.14700
H2176       H  0.31598609  0.12124402  0.47797201     0.14700
C2177       C  0.26408193  0.09159060  0.51044040     0.36300
C2178       C  0.34402152  0.02794826  0.40293298     0.36200
N2179       N  0.24514103  0.10407915  0.53002701    -0.44000
N2180       N  0.35925033  0.01567026  0.37995450    -0.44000
C2181       C  0.20352782  0.93999398  0.47632857    -0.00400
C2182       C  0.20495651  0.94122618  0.43951771    -0.12300
C2183       C  0.18400789  0.92037823  0.41935620     0.01800
C2184       C  0.16077265  0.89805395  0.43605588    -0.00500
C2185       C  0.16122571  0.89419490  0.47243944    -0.12200
C2186       C  0.18265850  0.91452980  0.49274663     0.01700
H2187       H  0.22209499  0.95897570  0.42610034     0.14700
H2188       H  0.14398990  0.87602183  0.48522165     0.14700
C2189       C  0.18207669  0.90824674  0.52995149     0.36300
C2190       C  0.18728946  0.92201409  0.38170836     0.36200
N2191       N  0.18124288  0.90205523  0.55956088    -0.44000
N2192       N  0.19001220  0.92313423  0.35157764    -0.44000
C2193       C  0.52263566  0.82311355  0.42356447    -0.00400
C2194       C  0.54781632  0.79918214  0.41283409    -0.12300
C2195       C  0.57948701  0.81130721  0.40425521     0.01800
C2196       C  0.58600741  0.84813165  0.40570781    -0.00500
C2197       C  0.56086965  0.87211593  0.41667777    -0.12200
C2198       C  0.52923175  0.85988887  0.42571561     0.01700
H2199       H  0.54308923  0.77067468  0.41219027     0.14700
H2200       H  0.56567951  0.90059804  0.41744580     0.14700
C2201       C  0.50391680  0.88562808  0.43594066     0.36300
C2202       C  0.60499613  0.78522383  0.39573292     0.36200
N2203       N  0.48372364  0.90633382  0.44412851    -0.44000
N2204       N  0.62536510  0.76417553  0.38915279    -0.44000
C2205       C  0.57222621  0.98041048  0.25370270    -0.00400
C2206       C  0.56412065  0.94496446  0.26171050    -0.12300
C2207       C  0.58381721  0.92551271  0.28491635     0.01800
C2208       C  0.61133876  0.94217410  0.30064683    -0.00500
C2209       C  0.62029768  0.97666768  0.29085358    -0.12200
C2210       C  0.60167351  0.99545392  0.26646272     0.01700
H2211       H  0.54104996  0.93357402  0.25218545     0.14700
H2212       H  0.64164845  0.98865072  0.30269521     0.14700
C2213       C  0.61258683  0.03012239  0.25465635     0.36300
C2214       C  0.57360696  0.88998495  0.29478977     0.36200
N2215       N  0.62098720  0.05754993  0.24394524    -0.44000
N2216       N  0.56553659  0.86156610  0.30300847    -0.44000
C2217       C  0.47743625  0.00194230  0.17820884    -0.00400
C2218       C  0.49145805  0.97959440  0.15252280    -0.12300
C2219       C  0.47139930  0.95746930  0.13253669     0.01800
C2220       C  0.43639303  0.95828325  0.13726657    -0.00500
C2221       C  0.42201438  0.98366776  0.15976053    -0.12200
C2222       C  0.44208455  0.00533767  0.18053943     0.01700
H2223       H  0.51840502  0.97764999  0.14954033     0.14700
H2224       H  0.39504915  0.98506161  0.16266101     0.14700
C2225       C  0.42530833  0.02830788  0.20565000     0.36300
C2226       C  0.48771929  0.93383218  0.10790814     0.36200
N2227       N  0.41170746  0.04648058  0.22583688    -0.44000
N2228       N  0.50117409  0.91501925  0.08828291    -0.44000
C2229       C  0.48796544  0.06583220  0.28616993    -0.00400
C2230       C  0.48061381  0.04755678  0.31735307    -0.12300
C2231       C  0.45629715  0.06087280  0.34048840     0.01800
C2232       C  0.43842148  0.09180623  0.33130479    -0.00500
C2233       C  0.44641565  0.11016714  0.30063454    -0.12200
C2234       C  0.47195289  0.09822194  0.27886308     0.01700
H2235       H  0.49270708  0.02221723  0.32281451     0.14700
H2236       H  0.43342565  0.13463050  0.29430810     0.14700
C2237       C  0.48301881  0.12067562  0.25058183     0.36300
C2238       C  0.44890856  0.04165680  0.37229352     0.36200
N2239       N  0.49297109  0.13928590  0.22885319    -0.44000
N2240       N  0.44295727  0.02626850  0.39778366    -0.44000
C2241       C  0.42742172  0.65804326  0.39240408    -0.00400
C2242       C  0.43894348  0.68392052  0.36903635    -0.12300
C2243       C  0.44802306  0.71755332  0.38133288     0.01800
C2244       C  0.44586110  0.72492496  0.41755774    -0.00500
C2245       C  0.43657894  0.69803288  0.44093125    -0.12200
C2246       C  0.42729987  0.66474747  0.42868149     0.01700
H2247       H  0.43846780  0.67876829  0.34111491     0.14700
H2248       H  0.43606306  0.70316063  0.46887803     0.14700
C2249       C  0.41650903  0.63844237  0.45386338     0.36300
C2250       C  0.45698407  0.74457937  0.35611612     0.36200
N2251       N  0.40769643  0.61772880  0.47427833    -0.44000
N2252       N  0.46411904  0.76630750  0.33596945    -0.44000
C2253       C  0.20099354  0.76556278  0.27615782    -0.00400
C2254       C  0.19795820  0.75075722  0.30980754    -0.12300
C2255       C  0.17483670  0.76477031  0.33400479     0.01800
C2256       C  0.15443255  0.79379309  0.32412675    -0.00500
C2257       C  0.15545133  0.80584395  0.28938202    -0.12200
C2258       C  0.17860144  0.79241219  0.26567407     0.01700
H2259       H  0.21494560  0.72976225  0.31790518     0.14700
H2260       H  0.13883569  0.82698218  0.28076577     0.14700
C2261       C  0.17999732  0.80814567  0.23130129     0.36300
C2262       C  0.17384523  0.75012181  0.36886886     0.36200
N2263       N  0.18225642  0.82104312  0.20397333    -0.44000
N2264       N  0.17302166  0.73829385  0.39678358    -0.44000
C2265       C  0.29076495  0.68296090  0.24502466    -0.00400
C2266       C  0.32583466  0.68532816  0.24420433    -0.12300
C2267       C  0.34505968  0.66323240  0.26519448     0.01800
C2268       C  0.32893003  0.63773969  0.28618363    -0.00500
C2269       C  0.29465694  0.63168384  0.28274593    -0.12200
C2270       C  0.27544925  0.65388213  0.26191338     0.01700
H2271       H  0.33813558  0.70683832  0.23031984     0.14700
H2272       H  0.28268908  0.61056191  0.29752902     0.14700
C2273       C  0.24000307  0.64752198  0.25979364     0.36300
C2274       C  0.38045509  0.67009158  0.26770823     0.36200
N2275       N  0.21155533  0.64277151  0.25785692    -0.44000
N2276       N  0.40875862  0.67585293  0.26962629    -0.44000
C2277       C  0.29105418  0.80252658  0.19888735    -0.00400
C2278       C  0.27465702  0.82112750  0.17249409    -0.12300
C2279       C  0.29244446  0.84411005  0.15080005     0.01800
C2280       C  0.32678807  0.84975873  0.15683759    -0.00500
C2281       C  0.34248840  0.83302244  0.18498554    -0.12200
C2282       C  0.32495446  0.80911041  0.20586035     0.01700
H2283       H  0.24863933  0.81548215  0.16707661     0.14700
H2284       H  0.36891234  0.83720346  0.18948376     0.14700
C2285       C  0.34245961  0.79093819  0.23354580     0.36300
C2286       C  0.27597947  0.85730060  0.11998587     0.36200
N2287       N  0.35650911  0.77629356  0.25563159    -0.44000
N2288       N  0.26278463  0.86704918  0.09496906    -0.44000
C2289       C  0.97889631  0.95660901  0.69792380    -0.00400
C2290       C  0.99082054  0.92393797  0.68447726    -0.12300
C2291       C  0.97336761  0.90572174  0.65871103     0.01800
C2292       C  0.94328993  0.92043786  0.64587882    -0.00500
C2293       C  0.93378986  0.95505042  0.65623705    -0.12200
C2294       C  0.95121331  0.97325933  0.68191091     0.01700
H2295       H  0.01281892  0.91137211  0.69542717     0.14700
H2296       H  0.91183316  0.96766682  0.64523531     0.14700
C2297       C  0.93893064  0.00820893  0.69197826     0.36300
C2298       C  0.98674443  0.87178815  0.64693692     0.36200
N2299       N  0.92872077  0.03598327  0.70023692    -0.44000
N2300       N  0.99753510  0.84460675  0.63763293    -0.44000
C2301       C  0.05953510  0.94582948  0.79215397    -0.00400
C2302       C  0.05857319  0.90902608  0.79807212    -0.12300
C2303       C  0.08347501  0.89267804  0.81764731     0.01800
C2304       C  0.10960122  0.91359760  0.83114424    -0.00500
C2305       C  0.11076485  0.95034023  0.82449643    -0.12200
C2306       C  0.08605217  0.96644477  0.80464731     0.01700
H2307       H  0.03766026  0.89345526  0.78874256     0.14700
H2308       H  0.13103504  0.96634966  0.83456561     0.14700
C2309       C  0.08824621  0.00393797  0.79649569     0.36300
C2310       C  0.08061817  0.85505713  0.82540095     0.36200
N2311       N  0.08879632  0.03379395  0.78893696    -0.44000
N2312       N  0.07842038  0.82498891  0.83190180    -0.44000
C2313       C  0.96469280  0.02669969  0.80495735    -0.00400
C2314       C  0.93088237  0.03068913  0.79619319    -0.12300
C2315       C  0.91002195  0.05405892  0.81461144     0.01800
C2316       C  0.92310909  0.07443411  0.84239715    -0.00500
C2317       C  0.95625320  0.06860271  0.85268844    -0.12200
C2318       C  0.97719993  0.04536642  0.83418732     0.01700
H2319       H  0.92048746  0.01541994  0.77478858     0.14700
H2320       H  0.96639609  0.08321019  0.87464439     0.14700
C2321       C  0.01149866  0.04271918  0.84536678     0.36300
C2322       C  0.87537743  0.05592466  0.80445806     0.36200
N2323       N  0.03880011  0.04099416  0.85493467    -0.44000
N2324       N  0.84763430  0.05721914  0.79627421    -0.44000
C2325       C  0.99878837  0.67230427  0.97369241    -0.00400
C2326       C  0.98960491  0.68822011  0.94191584    -0.12300
C2327       C  0.96462562  0.67342383  0.92162300     0.01800
C2328       C  0.94849510  0.64263992  0.93358753    -0.00500
C2329       C  0.95849549  0.62592429  0.96451983    -0.12200
C2330       C  0.98397649  0.64034553  0.98444617     0.01700
H2331       H  0.00001727  0.71376069  0.93431656     0.14700
H2332       H  0.94621222  0.60187722  0.97325283     0.14700
C2333       C  0.99460042  0.62233909  0.01573795     0.36300
C2334       C  0.95384795  0.69185759  0.89050964     0.36200
N2335       N  0.00382962  0.60787672  0.04054448    -0.44000
N2336       N  0.94486433  0.70665300  0.86576637    -0.44000
C2337       C  0.98253131  0.75639407  0.06561355    -0.00400
C2338       C  0.99463081  0.78361482  0.08706786    -0.12300
C2339       C  0.97323489  0.80305713  0.10895645     0.01800
C2340       C  0.93845742  0.79568971  0.10956338    -0.00500
C2341       C  0.92644718  0.76735779  0.08942838    -0.12200
C2342       C  0.94793140  0.74777205  0.06741937     0.01700
H2343       H  0.02104036  0.79002773  0.08657365     0.14700
H2344       H  0.89999468  0.76118104  0.09003143     0.14700
C2345       C  0.93301842  0.72036118  0.04601400     0.36300
C2346       C  0.98812938  0.82999885  0.13090572     0.36200
N2347       N  0.92087774  0.69846890  0.02895786    -0.44000
N2348       N  0.99981446  0.85162523  0.14858713    -0.44000
C2349       C  0.07513114  0.76771309  0.98089658    -0.00400
C2350       C  0.08860832  0.79786170  0.99748542    -0.12300
C2351       C  0.10937682  0.82151382  0.97918852     0.01800
C2352       C  0.11586483  0.81581223  0.94319898    -0.00500
C2353       C  0.10088686  0.78689034  0.92640476    -0.12200
C2354       C  0.08242961  0.76190731  0.94485990     0.01700
H2355       H  0.08328725  0.80274185  0.02494764     0.14700
H2356       H  0.10494328  0.78261890  0.89859302     0.14700
C2357       C  0.07250406  0.73053359  0.92540664     0.36300
C2358       C  0.12396386  0.85082010  0.99818315     0.36200
N2359       N  0.06544191  0.70537446  0.90948326    -0.44000
N2360       N  0.13579144  0.87427521  0.01336970    -0.44000
C2361       C  0.77787866  0.05226763  0.98957493    -0.00400
C2362       C  0.81221617  0.05454358  0.99694886    -0.12300
C2363       C  0.83321451  0.07657113  0.97749631     0.01800
C2364       C  0.81973511  0.09735423  0.95036013    -0.00500
C2365       C  0.78494391  0.09806442  0.94573903    -0.12200
C2366       C  0.76393127  0.07586996  0.96510203     0.01700
H2367       H  0.82341177  0.03711344  0.01618024     0.14700
H2368       H  0.77413990  0.11551980  0.92646324     0.14700
C2369       C  0.72837547  0.07768819  0.95918235     0.36300
C2370       C  0.86863884  0.07489097  0.98426228     0.36200
N2371       N  0.69987086  0.07920471  0.95458284    -0.44000
N2372       N  0.89701139  0.07334751  0.98965204    -0.44000
C2373       C  0.69849188  0.95500648  0.97047009    -0.00400
C2374       C  0.67903801  0.97658417  0.94837151    -0.12300
C2375       C  0.65380996  0.96202382  0.92773685     0.01800
C2376       C  0.64706959  0.92509984  0.92959882    -0.00500
C2377       C  0.66660621  0.90360422  0.95135523    -0.12200
C2378       C  0.69269027  0.91775217  0.97076750     0.01700
H2379       H  0.68318636  0.00514031  0.94740458     0.14700
H2380       H  0.66168264  0.87527498  0.95306368     0.14700
C2381       C  0.71392357  0.89261781  0.98866645     0.36300
C2382       C  0.63454193  0.98597640  0.90620510     0.36200
N2383       N  0.73081923  0.87168514  0.00209188    -0.44000
N2384       N  0.61922963  0.00536725  0.88904397    -0.44000
C2385       C  0.78262550  0.94975288  0.06392686    -0.00400
C2386       C  0.81593047  0.96057317  0.06863622    -0.12300
C2387       C  0.83829391  0.94021137  0.08788439     0.01800
C2388       C  0.82740294  0.90826096  0.10359346    -0.00500
C2389       C  0.79386466  0.89782598  0.09968972    -0.12200
C2390       C  0.77153786  0.91815573  0.08010569     0.01700
H2391       H  0.82521796  0.98455758  0.05618428     0.14700
H2392       H  0.78475068  0.87383874  0.11233502     0.14700
C2393       C  0.73754867  0.90595127  0.07744757     0.36300
C2394       C  0.87238618  0.95250380  0.08989201     0.36200
N2395       N  0.71044139  0.89575574  0.07501017    -0.44000
N2396       N  0.89968618  0.96240157  0.09128964    -0.44000
C2397       C  0.80692164  0.72809668  0.79956975    -0.00400
C2398       C  0.82492735  0.70288773  0.77977390    -0.12300
C2399       C  0.84249172  0.67558958  0.79603935     0.01800
C2400       C  0.84266553  0.67380672  0.83292873    -0.00500
C2401       C  0.82673233  0.70060114  0.85267375    -0.12200
C2402       C  0.80886696  0.72769279  0.83637485     0.01700
H2403       H  0.82360952  0.70313685  0.75144971     0.14700
H2404       H  0.82757161  0.69993300  0.88101443     0.14700
C2405       C  0.79310695  0.75455663  0.85821022     0.36300
C2406       C  0.85751687  0.64838071  0.77407157     0.36200
N2407       N  0.78086288  0.77581390  0.87631216    -0.44000
N2408       N  0.86932824  0.62644566  0.75647872    -0.44000
C2409       C  0.64504110  0.82088275  0.82833159    -0.00400
C2410       C  0.64442445  0.81526898  0.79209982    -0.12300
C2411       C  0.67236343  0.80126647  0.77463248     0.01800
C2412       C  0.70136234  0.79303574  0.79371276    -0.00500
C2413       C  0.70119485  0.79724232  0.83009491    -0.12200
C2414       C  0.67352948  0.81129213  0.84747212     0.01700
H2415       H  0.62234364  0.82237824  0.77743409     0.14700
H2416       H  0.72337428  0.79121003  0.84497538     0.14700
C2417       C  0.67641517  0.81814694  0.88444622     0.36300
C2418       C  0.67068411  0.79531247  0.73742025     0.36200
N2419       N  0.67958228  0.82320119  0.91406191    -0.44000
N2420       N  0.67013709  0.79027153  0.70758773    -0.44000
C2421       C  0.82219914  0.83117104  0.64580669    -0.00400
C2422       C  0.81923618  0.79388936  0.64707697    -0.12300
C2423       C  0.79966366  0.77785437  0.67275928     0.01800
C2424       C  0.78261033  0.79933935  0.69738471    -0.00500
C2425       C  0.78266306  0.83650118  0.69400443    -0.12200
C2426       C  0.80257986  0.85271546  0.66859096     0.01700
H2427       H  0.83313063  0.77719043  0.62875388     0.14700
H2428       H  0.76956362  0.85293447  0.71318232     0.14700
C2429       C  0.80471058  0.89121580  0.66900550     0.36300
C2430       C  0.79852384  0.73935384  0.67445958     0.36200
N2431       N  0.80637794  0.92205500  0.66979299    -0.44000
N2432       N  0.79748564  0.70855215  0.67633878    -0.44000
loop_ 
_geom_bond_atom_site_label_1 
_geom_bond_atom_site_label_2 
_geom_bond_distance 
_geom_bond_site_symmetry_2 
_ccdc_geom_bond_type 
O1           Ni7   1.916       .  S
O1           C22   1.272       .  A
O2          Ni25   1.962       .  S
O2           C11   1.283       .  A
O3           Ni7   1.923       .  S
O3          Ni25   1.938       .  S
O3          Ni19   1.922       .  S
O3           H26   0.966       .  S
C4           O21   1.287       .  A
C4           O13   1.273       .  A
C4          C618   1.529       .  S
O5          Ni24   1.918       .  S
O5           C11   1.272       .  A
O6          Ni24   1.977       .  S
O6            C8   1.283       .  A
Ni7          O10   1.925       .  S
Ni7          O12   1.978       .  S
C8           O18   1.288       .  A
C8          C975   1.558       .  S
O9          Ni25   1.973       .  S
O9           C15   1.285       .  A
O10          C15   1.275       .  A
C11         C412   1.505       .  S
O12          C14   1.284       .  A
O13         Ni24   1.918       .  S
C14          O20   1.292       .  A
C14        C1057   1.574       .  S
C15         C681   1.527       .  S
H16          O17   0.968       .  S
O17         Ni25   1.916       .  S
O17         Ni19   1.945       .  S
O17         Ni24   1.933       .  S
O18         Ni19   2.009       .  S
Ni19         O23   1.978       .  S
Ni19         O21   1.977       .  S
O20         Ni25   2.028       .  S
C22          O23   1.285       .  A
C22         C886   1.516       .  S
O27         Ni33   1.899       .  S
O27          C48   1.268       .  A
O28         Ni51   1.980       .  S
O28          C37   1.287       .  A
O29         Ni33   1.927       .  S
O29         Ni51   1.933       .  S
O29         Ni45   1.948       .  S
O29          H52   0.966       .  S
C30          O47   1.297       .  A
C30          O39   1.280       .  A
C30         C632   1.540       .  S
O31         Ni50   1.931       .  S
O31          C37   1.281       .  A
O32         Ni50   2.004       .  S
O32          C34   1.291       .  A
Ni33         O36   1.938       .  S
Ni33         O38   1.969       .  S
C34          O44   1.277       .  A
C34        C1236   1.570       .  S
O35         Ni51   2.014       .  S
O35          C41   1.303       .  A
O36          C41   1.278       .  A
C37         C487   1.535       .  S
O38          C40   1.281       .  A
O39         Ni50   1.944       .  S
C40          O46   1.287       .  A
C40        C1056   1.562       .  S
C41         C853   1.552       .  S
H42          O43   0.966       .  S
O43         Ni51   1.947       .  S
O43         Ni45   1.935       .  S
O43         Ni50   1.923       .  S
O44         Ni45   1.987       .  S
Ni45         O49   1.961       .  S
Ni45         O47   1.993       .  S
O46         Ni51   2.011       .  S
C48          O49   1.274       .  A
C48         C726   1.505       .  S
C53        C2424   1.455       .  S
C53          N54   1.353       .  A
C53          N58   1.351       .  A
N54          C55   1.356       .  A
C55        C2412   1.466       .  S
C55          N56   1.354       .  A
N56          C57   1.350       .  A
C57        C2397   1.462       .  S
C57          N58   1.349       .  A
C59        C2361   1.474   1_554  S
C59          N60   1.356   1_554  A
C59          N64   1.348       .  A
N60          C61   1.359   1_545  A
C61        C2373   1.486       .  S
C61          N62   1.360   1_556  A
N62          C63   1.357       .  A
C63        C2385   1.478       .  S
C63          N64   1.349   1_565  A
C65        C2325   1.449   1_455  S
C65          N66   1.344       .  A
C65          N70   1.348   1_456  A
N66          C67   1.348   1_556  A
C67        C2349   1.482   1_554  S
C67          N68   1.362       .  A
N68          C69   1.365       .  A
C69        C2337   1.483   1_455  S
C69          N70   1.350   1_455  A
C71        C2313   1.473       .  S
C71          N72   1.349   1_645  A
C71          N76   1.352   1_545  A
N72          C73   1.351       .  A
C73        C2301   1.448       .  S
C73          N74   1.350       .  A
N74          C75   1.355   1_455  A
C75        C2289   1.474       .  S
C75          N76   1.353       .  A
O77         Ni85   1.899       .  S
O77          C87   1.278       .  A
O78         Ni85   1.971       .  S
O78          C88   1.294       .  A
O79         Ni85   1.973       .  S
O79          C89   1.296       .  A
O80         Ni85   1.914       .  S
O80          C90   1.279       .  A
O81         Ni86   1.897       .  S
O81          C90   1.281       .  A
O82         Ni86   1.974       .  S
O82          C89   1.294       .  A
O83         Ni86   1.962       .  S
O83          C88   1.293       .  A
O84         Ni86   1.896       .  S
O84          C87   1.278       .  A
Ni85        Ni86   2.383       .  S
C87        C2304   1.454       .  S
C88         C246   1.559       .  S
C89         C298   1.564       .  S
C90        C2352   1.477       .  S
O91         Ni99   1.882       .  S
O91         C101   1.273       .  A
O92         Ni99   1.948       .  S
O92         C102   1.291       .  A
O93         Ni99   1.977       .  S
O93         C103   1.296       .  A
O94         Ni99   1.912       .  S
O94         C104   1.282       .  A
O95        Ni100   1.895       .  S
O95         C104   1.277       .  A
O96        Ni100   1.974       .  S
O96         C103   1.294       .  A
O97        Ni100   2.006       .  S
O97         C102   1.301       .  A
O98        Ni100   1.940       .  S
O98         C101   1.287       .  A
Ni99       Ni100   2.373       .  S
C101       C2340   1.481       .  S
C102        C506   1.570       .  S
C103        C350   1.566       .  S
C104       C2388   1.476       .  S
O105       Ni113   1.903       .  S
O105        C115   1.278       .  A
O106       Ni113   1.965       .  S
O106        C116   1.291       .  A
O107       Ni113   1.970       .  S
O107        C117   1.295       .  A
O108       Ni113   1.908       .  S
O108        C118   1.282       .  A
O109       Ni114   1.895       .  S
O109        C118   1.275       .  A
O110       Ni114   1.941       .  S
O110        C117   1.288       .  A
O111       Ni114   1.944       .  S
O111        C116   1.291       .  A
O112       Ni114   1.895       .  S
O112        C115   1.279       .  A
Ni113      Ni114   2.385       .  S
C115       C2292   1.472       .  S
C116        C327   1.540       .  S
C117        C810   1.546       .  S
C118       C2421   1.465       .  S
O119       Ni127   1.893       .  S
O119        C129   1.276       .  A
O120       Ni127   1.933       .  S
O120        C130   1.283       .  A
O121       Ni127   1.934       .  S
O121        C131   1.289       .  A
O122       Ni127   1.893       .  S
O122        C132   1.273       .  A
O123       Ni128   1.898       .  S
O123        C132   1.276       .  A
O124       Ni128   1.933       .  S
O124        C131   1.280       .  A
O125       Ni128   1.920       .  S
O125        C130   1.287       .  A
O126       Ni128   1.900       .  S
O126        C129   1.280       .  A
Ni127      Ni128   2.392       .  S
C129       C2400   1.463       .  S
C130        C275   1.500       .  S
C131        C781   1.498       .  S
C132       C2328   1.442       .  S
O133       Ni141   1.914       .  S
O133        C143   1.280       .  A
O134       Ni141   1.988       .  S
O134        C144   1.300       .  A
O135       Ni141   1.979       .  S
O135        C145   1.297       .  A
O136       Ni141   1.899       .  S
O136        C146   1.277       .  A
O137       Ni142   1.908       .  S
O137        C146   1.279       .  A
O138       Ni142   1.984       .  S
O138        C145   1.297       .  A
O139       Ni142   1.986       .  S
O139        C144   1.297       .  A
O140       Ni142   1.909       .  S
O140        C143   1.281       .  A
Ni141      Ni142   2.380       .  S
C143       C2376   1.477       .  S
C144        C226   1.585       .  S
C145        C376   1.580       .  S
C146       C2409   1.456       .  S
O147       Ni155   1.912       .  S
O147        C157   1.279       .  A
O148       Ni155   1.964       .  S
O148        C158   1.291       .  A
O149       Ni155   1.945       .  S
O149        C159   1.286       .  A
O150       Ni155   1.900       .  S
O150        C160   1.279       .  A
O151       Ni156   1.899       .  S
O151        C160   1.278       .  A
O152       Ni156   1.923       .  S
O152        C159   1.286       .  A
O153       Ni156   1.936       .  S
O153        C158   1.286       .  A
O154       Ni156   1.904       .  S
O154        C157   1.279       .  A
Ni155      Ni156   2.382       .  S
C157       C2364   1.473       .  S
C158       C1161   1.521       .  S
C159        C550   1.510       .  S
C160       C2316   1.473       .  S
O161       Ni167   1.911       .  S
O161        C182   1.274       .  A
O162       Ni185   1.962       .  S
O162        C171   1.278       .  A
O163       Ni167   1.918       .  S
O163       Ni185   1.922       .  S
O163       Ni179   1.945       .  S
O163        H186   0.966       .  S
C164        O181   1.302       .  A
C164        O173   1.280       .  A
C164        C713   1.536       .  S
O165       Ni184   1.897       .  S
O165        C171   1.268       .  A
O166       Ni184   1.968       .  S
O166        C168   1.279       .  A
Ni167       O170   1.947       .  S
Ni167       O172   1.977       .  S
C168        O178   1.277       .  A
C168        C633   1.548       .  S
O169       Ni185   1.995       .  S
O169        C175   1.298       .  A
O170        C175   1.281       .  A
C171       C1190   1.496       .  S
O172        C174   1.283       .  A
O173       Ni184   1.947       .  S
C174        O180   1.286       .  A
C174        C949   1.560       .  S
C175       C1088   1.542       .  S
H176        O177   0.966       .  S
O177       Ni185   1.949       .  S
O177       Ni179   1.920       .  S
O177       Ni184   1.923       .  S
O178       Ni179   1.982       .  S
Ni179       O183   1.955       .  S
Ni179       O181   1.998       .  S
O180       Ni185   2.006       .  S
C182        O183   1.275       .  A
C182        C413   1.505       .  S
O187       Ni193   1.914       .  S
O187        C208   1.272       .  A
O188       Ni211   2.021       .  S
O188        C197   1.294       .  A
O189       Ni193   1.926       .  S
O189       Ni211   1.947       .  S
O189       Ni205   1.935       .  S
O189        H212   0.967       .  S
C190        O207   1.298       .  A
C190        O199   1.275       .  A
C190        C994   1.515       .  S
O191       Ni210   1.905       .  S
O191        C197   1.269       .  A
O192       Ni210   1.968       .  S
O192        C194   1.281       .  A
Ni193       O196   1.923       .  S
Ni193       O198   1.972       .  S
C194        O204   1.283       .  A
C194       C1089   1.548       .  S
O195       Ni211   1.998       .  S
O195        C201   1.299       .  A
O196        C201   1.274       .  A
C197       C1216   1.548       .  S
O198        C200   1.283       .  A
O199       Ni210   1.919       .  S
C200        O206   1.292       .  A
C200        C867   1.567       .  S
C201        C486   1.535       .  S
H202        O203   0.966       .  S
O203       Ni211   1.936       .  S
O203       Ni205   1.947       .  S
O203       Ni210   1.927       .  S
O204       Ni205   1.994       .  S
Ni205       O209   1.994       .  S
Ni205       O207   1.988       .  S
O206       Ni211   2.020       .  S
C208        O209   1.286       .  A
C208        C619   1.529       .  S
O213       Ni219   1.934       .  S
O213        C234   1.280       .  A
O214       Ni237   1.989       .  S
O214        C223   1.288       .  A
O215       Ni219   1.931       .  S
O215       Ni237   1.950       .  S
O215       Ni231   1.927       .  S
O215        H238   0.967       .  S
C216        O233   1.286       .  A
C216        O225   1.271       .  A
C216        C472   1.506       .  S
O217       Ni236   1.926       .  S
O217        C223   1.274       .  A
O218       Ni236   1.969       .  S
O218        C220   1.281       .  A
Ni219       O222   1.924       .  S
Ni219       O224   1.991       .  S
C220        O230   1.292       .  A
C220        C974   1.565       .  S
O221       Ni237   1.954       .  S
O221        C227   1.289       .  A
O222        C227   1.276       .  A
C223        C591   1.526       .  S
O224        C226   1.288       .  A
O225       Ni236   1.917       .  S
C226        O232   1.294       .  A
C227        C741   1.497       .  S
H228        O229   0.966       .  S
O229       Ni237   1.919       .  S
O229       Ni231   1.949       .  S
O229       Ni236   1.934       .  S
O230       Ni231   2.027       .  S
Ni231       O235   1.990       .  S
Ni231       O233   1.956       .  S
O232       Ni237   2.028       .  S
C234        O235   1.285       .  A
C234        C900   1.540       .  S
O239       Ni245   1.927       .  S
O239        C260   1.273       .  A
O240       Ni263   1.989       .  S
O240        C249   1.289       .  A
O241       Ni245   1.926   1_556  S
O241       Ni263   1.951       .  S
O241       Ni257   1.908   1_556  S
O241        H264   0.968       .  S
C242        O259   1.284       .  A
C242        O251   1.267       .  A
C242       C1264   1.530       .  S
O243       Ni262   1.925   1_556  S
O243        C249   1.274       .  A
O244       Ni262   1.976   1_556  S
O244        C246   1.289       .  A
Ni245       O248   1.910   1_554  S
Ni245       O250   1.967       .  S
C246        O256   1.293       .  A
O247       Ni263   1.965       .  S
O247        C253   1.282       .  A
O248        C253   1.271       .  A
C249       C1037   1.527       .  S
O250        C252   1.282       .  A
O251       Ni262   1.902       .  S
C252        O258   1.286       .  A
C252        C712   1.548       .  S
C253        C590   1.513       .  S
H254        O255   0.966       .  S
O255       Ni263   1.923   1_554  S
O255       Ni257   1.959       .  S
O255       Ni262   1.924       .  S
O256       Ni257   2.021   1_556  S
Ni257       O261   1.996       .  S
Ni257       O259   1.983       .  S
O258       Ni263   2.004   1_554  S
C260        O261   1.294       .  A
C260        C447   1.532       .  S
O265       Ni271   1.905       .  S
O265        C286   1.272       .  A
O266       Ni289   1.972       .  S
O266        C275   1.282       .  A
O267       Ni271   1.913       .  S
O267       Ni289   1.928   1_454  S
O267       Ni283   1.950   1_455  S
O267        H290   0.966       .  S
C268        O285   1.300       .  A
C268        O277   1.274       .  A
C268       C1116   1.530       .  S
O269       Ni288   1.884   1_556  S
O269        C275   1.264       .  A
O270       Ni288   1.947       .  S
O270        C272   1.276       .  A
Ni271       O274   1.934   1_554  S
Ni271       O276   1.976   1_554  S
C272        O282   1.278       .  A
C272        C755   1.532       .  S
O273       Ni289   2.018   1_455  S
O273        C279   1.305       .  A
O274        C279   1.279       .  A
O276        C278   1.283       .  A
O277       Ni288   1.924       .  S
C278        O284   1.280       .  A
C278        C660   1.549       .  S
C279       C1036   1.546       .  S
H280        O281   0.966       .  S
O281       Ni289   1.958       .  S
O281       Ni283   1.929   1_556  S
O281       Ni288   1.920   1_556  S
O282       Ni283   1.984       .  S
Ni283       O287   1.963   1_655  S
Ni283       O285   2.004       .  S
O284       Ni289   1.986   1_455  S
C286        O287   1.276       .  A
C286       C1191   1.507       .  S
O291       Ni297   1.916       .  S
O291        C312   1.275       .  A
O292       Ni315   1.971       .  S
O292        C301   1.280       .  A
O293       Ni297   1.923       .  S
O293       Ni315   1.933   1_565  S
O293       Ni309   1.947       .  S
O293        H316   0.966       .  S
C294        O311   1.301       .  A
C294        O303   1.279       .  A
C294       C1022   1.533       .  S
O295       Ni314   1.908   1_545  S
O295        C301   1.272       .  A
O296       Ni314   1.975       .  S
O296        C298   1.282       .  A
Ni297       O300   1.941   1_565  S
Ni297       O302   1.975   1_565  S
C298        O308   1.286       .  A
O299       Ni315   1.984       .  S
O299        C305   1.296       .  A
O300        C305   1.279       .  A
C301       C1250   1.510       .  S
O302        C304   1.283       .  A
O303       Ni314   1.936       .  S
C304        O310   1.287       .  A
C304        C866   1.561       .  S
C305        C646   1.528       .  S
H306        O307   0.967       .  S
O307       Ni315   1.941       .  S
O307       Ni309   1.931   1_545  S
O307       Ni314   1.923   1_545  S
O308       Ni309   2.008       .  S
Ni309       O313   1.974       .  S
Ni309       O311   1.997       .  S
O310       Ni315   2.008       .  S
C312        O313   1.282       .  A
C312        C473   1.518       .  S
O317       Ni323   1.906       .  S
O317        C338   1.266       .  A
O318       Ni341   1.987       .  S
O318        C327   1.289       .  A
O319       Ni323   1.930       .  S
O319       Ni341   1.942       .  S
O319       Ni335   1.922       .  S
O319        H342   0.967       .  S
C320        O337   1.289       .  A
C320        O329   1.274       .  A
C320        C433   1.531       .  S
O321       Ni340   1.944       .  S
O321        C327   1.279       .  A
O322       Ni340   1.978       .  S
O322        C324   1.289       .  A
Ni323       O326   1.929       .  S
Ni323       O328   1.954       .  S
C324        O334   1.287       .  A
C324        C901   1.547       .  S
O325       Ni341   1.977       .  S
O325        C331   1.294       .  A
O326        C331   1.276       .  A
O328        C330   1.276       .  A
O329       Ni340   1.933       .  S
C330        O336   1.277       .  A
C330       C1130   1.529       .  S
C331       C1009   1.521       .  S
H332        O333   0.966       .  S
O333       Ni341   1.931       .  S
O333       Ni335   1.951       .  S
O333       Ni340   1.928       .  S
O334       Ni335   1.997       .  S
Ni335       O339   1.999       .  S
Ni335       O337   1.975       .  S
O336       Ni341   1.977       .  S
C338        O339   1.289       .  A
C338        C680   1.526       .  S
O343       Ni349   1.927   1_655  S
O343        C364   1.274       .  A
O344       Ni367   1.988       .  S
O344        C353   1.291       .  A
O345       Ni349   1.933   1_655  S
O345       Ni367   1.945   1_655  S
O345       Ni361   1.909       .  S
O345        H368   0.964       .  S
C346        O363   1.281       .  A
C346        O355   1.273       .  A
C346        C754   1.519       .  S
O347       Ni366   1.934   1_455  S
O347        C353   1.276       .  A
O348       Ni366   1.974       .  S
O348        C350   1.285       .  A
Ni349       O352   1.912       .  S
Ni349       O354   1.977       .  S
C350        O360   1.292       .  A
O351       Ni367   1.967       .  S
O351        C357   1.285       .  A
O352        C357   1.270       .  A
C353       C1265   1.528       .  S
O354        C356   1.285       .  A
O355       Ni366   1.920       .  S
C356        O362   1.294       .  A
C356        C948   1.567       .  S
C357        C500   1.512       .  S
H358        O359   0.966       .  S
O359       Ni367   1.923       .  S
O359       Ni361   1.956   1_455  S
O359       Ni366   1.929   1_455  S
O360       Ni361   2.024       .  S
Ni361       O365   1.976       .  S
Ni361       O363   1.964       .  S
O362       Ni367   2.024       .  S
C364        O365   1.286       .  A
C364       C1131   1.522       .  S
O369       Ni375   1.898   1_565  S
O369        C390   1.269       .  A
O370       Ni393   1.976       .  S
O370        C379   1.283       .  A
O371       Ni375   1.927   1_556  S
O371       Ni393   1.934       .  S
O371       Ni387   1.941   1_546  S
O371        H394   0.966   1_545  S
C372        O389   1.301       .  A
C372        O381   1.280       .  A
C372        C768   1.535       .  S
O373       Ni392   1.924       .  S
O373        C379   1.278       .  A
O374       Ni392   1.997   1_565  S
O374        C376   1.288       .  A
Ni375       O378   1.921   1_554  S
Ni375       O380   1.968       .  S
C376        O386   1.286       .  A
O377       Ni393   1.992       .  S
O377        C383   1.298       .  A
O378        C383   1.275       .  A
C379        C929   1.526       .  S
O380        C382   1.281       .  A
O381       Ni392   1.941   1_564  S
C382        O388   1.292       .  A
C382       C1237   1.570       .  S
C383        C647   1.526       .  S
H384        O385   0.967       .  S
O385       Ni393   1.938   1_554  S
O385       Ni387   1.932   1_545  S
O385       Ni392   1.930   1_554  S
O386       Ni387   2.010   1_556  S
Ni387       O391   1.983       .  S
Ni387       O389   1.991       .  S
O388       Ni393   2.027   1_554  S
C390        O391   1.284       .  A
C390        C446   1.519       .  S
C395       C2253   1.466       .  S
C395        N396   1.352       .  A
C395        N400   1.354       .  A
N396        C397   1.357       .  A
C397       C2265   1.464       .  S
C397        N398   1.351       .  A
N398        C399   1.348       .  A
C399       C2277   1.450       .  S
C399        N400   1.347       .  A
O401       Ni409   1.891       .  S
O401        C411   1.274       .  A
O402       Ni409   1.948       .  S
O402        C412   1.287       .  A
O403       Ni409   1.960       .  S
O403        C413   1.293       .  A
O404       Ni409   1.916       .  S
O404        C414   1.282       .  A
O405       Ni410   1.871       .  S
O405        C414   1.273       .  A
O406       Ni410   1.897       .  S
O406        C413   1.277       .  A
O407       Ni410   1.922       .  S
O407        C412   1.285       .  A
O408       Ni410   1.902       .  S
O408        C411   1.281       .  A
Ni409      Ni410   2.393       .  S
C411       C2268   1.448       .  S
C414       C2241   1.448       .  S
C415       C2217   1.475       .  S
C415        N416   1.350       .  A
C415        N420   1.359   1_545  A
N416        C417   1.350       .  A
C417       C2229   1.454       .  S
C417        N418   1.347       .  A
N418        C419   1.353       .  A
C419       C2205   1.452   1_545  S
C419        N420   1.353   1_545  A
O421       Ni429   1.900       .  S
O421        C431   1.280       .  A
O422       Ni429   1.960       .  S
O422        C432   1.294       .  A
O423       Ni429   1.948       .  S
O423        C433   1.288       .  A
O424       Ni429   1.890       .  S
O424        C434   1.273       .  A
O425       Ni430   1.919       .  S
O425        C434   1.282       .  A
O426       Ni430   1.958       .  S
O426        C433   1.292       .  A
O427       Ni430   1.941       .  S
O427        C432   1.285       .  A
O428       Ni430   1.885       .  S
O428        C431   1.275       .  A
Ni429      Ni430   2.387       .  S
C431       C2196   1.455       .  S
C432        C516   1.534       .  S
C434       C2208   1.458       .  S
O435       Ni443   1.898       .  S
O435        C445   1.277       .  A
O436       Ni443   1.940       .  S
O436        C446   1.292       .  A
O437       Ni443   1.964       .  S
O437        C447   1.289       .  A
O438       Ni443   1.914       .  S
O438        C448   1.281       .  A
O439       Ni444   1.903       .  S
O439        C448   1.280       .  A
O440       Ni444   1.947       .  S
O440        C447   1.292       .  A
O441       Ni444   1.940       .  S
O441        C446   1.283       .  A
O442       Ni444   1.898       .  S
O442        C445   1.279       .  A
Ni443      Ni444   2.388       .  S
C445       C2280   1.456       .  S
C448       C2220   1.467       .  S
C449       C2169   1.449       .  S
C449        N450   1.345       .  A
C449        N454   1.344   1_545  A
N450        C451   1.347   1_545  A
C451       C2157   1.475       .  S
C451        N452   1.359       .  A
N452        C453   1.357       .  A
C453       C2181   1.473       .  S
C453        N454   1.352       .  A
C455       C2244   1.457       .  S
C455        N456   1.345       .  A
C455        N460   1.354       .  A
N456        C457   1.348       .  A
C457       C2193   1.453       .  S
C457        N458   1.351       .  A
N458        C459   1.353       .  A
C459       C2145   1.464       .  S
C459        N460   1.353       .  A
O461       Ni469   1.897       .  S
O461        C471   1.278       .  A
O462       Ni469   1.942       .  S
O462        C472   1.288       .  A
O463       Ni469   1.947       .  S
O463        C473   1.286       .  A
O464       Ni469   1.909       .  S
O464        C474   1.280       .  A
O465       Ni470   1.892       .  S
O465        C474   1.278       .  A
O466       Ni470   1.926       .  S
O466        C473   1.286       .  A
O467       Ni470   1.937       .  S
O467        C472   1.283       .  A
O468       Ni470   1.896       .  S
O468        C471   1.279       .  A
Ni469      Ni470   2.387       .  S
C471       C2160   1.467       .  S
C474       C2148   1.463       .  S
O475       Ni483   1.902       .  S
O475        C485   1.280       .  A
O476       Ni483   1.963       .  S
O476        C486   1.289       .  A
O477       Ni483   1.945       .  S
O477        C487   1.291       .  A
O478       Ni483   1.882       .  S
O478        C488   1.274       .  A
O479       Ni484   1.905       .  S
O479        C488   1.278       .  A
O480       Ni484   1.964       .  S
O480        C487   1.290       .  A
O481       Ni484   1.945       .  S
O481        C486   1.292       .  A
O482       Ni484   1.898       .  S
O482        C485   1.276       .  A
Ni483      Ni484   2.387       .  S
C485       C2232   1.449       .  S
C488       C2172   1.439       .  S
O489       Ni497   1.899       .  S
O489        C499   1.279       .  A
O490       Ni497   1.940       .  S
O490        C500   1.285       .  A
O491       Ni497   1.925       .  S
O491        C501   1.287       .  A
O492       Ni497   1.874       .  S
O492        C502   1.276       .  A
O493       Ni498   1.924       .  S
O493        C502   1.283       .  A
O494       Ni498   1.970       .  S
O494        C501   1.291       .  A
O495       Ni498   1.932       .  S
O495        C500   1.289       .  A
O496       Ni498   1.887       .  S
O496        C499   1.275       .  A
Ni497      Ni498   2.384       .  S
C499       C2184   1.455       .  S
C501        C807   1.524       .  S
C502       C2256   1.470       .  S
O503       Ni509   1.917   1_565  S
O503        C524   1.272       .  A
O504       Ni527   1.993       .  S
O504        C513   1.291       .  A
O505       Ni509   1.918       .  S
O505       Ni527   1.950       .  S
O505       Ni521   1.953   1_545  S
O505        H528   0.966       .  S
C506        O523   1.300       .  A
C506        O515   1.279       .  A
O507       Ni526   1.928   1_545  S
O507        C513   1.273       .  A
O508       Ni526   1.967   1_545  S
O508        C510   1.282       .  A
Ni509       O512   1.924       .  S
Ni509       O514   1.961   1_545  S
C510        O520   1.284       .  A
C510       C1279   1.545       .  S
O511       Ni527   2.022       .  S
O511        C517   1.292       .  A
O512        C517   1.265       .  A
C513       C1145   1.530       .  S
O514        C516   1.283       .  A
O515       Ni526   1.944       .  S
C516        O522   1.288       .  A
C517        C852   1.558       .  S
H518        O519   0.966       .  S
O519       Ni527   1.940   1_565  S
O519       Ni521   1.949       .  S
O519       Ni526   1.924       .  S
O520       Ni521   1.996   1_545  S
Ni521       O525   2.005       .  S
Ni521       O523   2.024       .  S
O522       Ni527   2.000   1_565  S
C524        O525   1.296       .  A
C524        C769   1.534       .  S
O529       Ni535   1.900       .  S
O529        C550   1.268       .  A
O530       Ni553   1.974       .  S
O530        C539   1.283       .  A
O531       Ni535   1.919       .  S
O531       Ni553   1.931   1_556  S
O531       Ni547   1.948   1_556  S
O531        H554   0.966       .  S
C532        O549   1.300       .  A
C532        O541   1.280       .  A
C532       C1278   1.557       .  S
O533       Ni552   1.929       .  S
O533        C539   1.275       .  A
O534       Ni552   1.957       .  S
O534        C536   1.280       .  A
Ni535       O538   1.925       .  S
Ni535       O540   1.951       .  S
C536        O546   1.282       .  A
C536       C1117   1.531       .  S
O537       Ni553   2.023   1_556  S
O537        C543   1.306       .  A
O538        C543   1.276       .  A
C539        C727   1.520       .  S
O540        C542   1.277       .  A
O541       Ni552   1.954       .  S
C542        O548   1.275       .  A
C542        C928   1.525       .  S
C543        C604   1.543       .  S
H544        O545   0.966       .  S
O545       Ni553   1.960       .  S
O545       Ni547   1.945       .  S
O545       Ni552   1.922       .  S
O546       Ni547   1.984       .  S
Ni547       O551   1.979   1_554  S
Ni547       O549   2.015       .  S
O548       Ni553   1.971   1_556  S
C550        O551   1.283       .  A
C555       C2112   1.473       .  S
C555        N556   1.359       .  A
C555        N560   1.346       .  A
N556        C557   1.357       .  A
C557       C2133   1.481       .  S
C557        N558   1.355       .  A
N558        C559   1.347       .  A
C559       C2121   1.447       .  S
C559        N560   1.346       .  A
C561       C2076   1.446       .  S
C561        N562   1.349       .  A
C561        N566   1.355   1_556  A
N562        C563   1.346       .  A
C563       C2097   1.472       .  S
C563        N564   1.348   1_556  A
N564        C565   1.351       .  A
C565       C2085   1.477       .  S
C565        N566   1.355       .  A
C567       C2061   1.477       .  S
C567        N568   1.344       .  A
C567        N572   1.364       .  A
N568        C569   1.336       .  A
C569       C2049   1.448       .  S
C569        N570   1.341       .  A
N570        C571   1.354       .  A
C571       C2037   1.476       .  S
C571        N572   1.364       .  A
C573       C2013   1.458       .  S
C573        N574   1.355       .  A
C573        N578   1.355   1_556  A
N574        C575   1.348       .  A
C575       C2001   1.444       .  S
C575        N576   1.344   1_556  A
N576        C577   1.343       .  A
C577       C2025   1.471       .  S
C577        N578   1.357       .  A
O579       Ni587   1.899       .  S
O579        C589   1.280       .  A
O580       Ni587   1.951       .  S
O580        C590   1.288       .  A
O581       Ni587   1.935       .  S
O581        C591   1.289       .  A
O582       Ni587   1.880       .  S
O582        C592   1.273       .  A
O583       Ni588   1.922       .  S
O583        C592   1.283       .  A
O584       Ni588   1.965       .  S
O584        C591   1.288       .  A
O585       Ni588   1.921       .  S
O585        C590   1.285       .  A
O586       Ni588   1.881       .  S
O586        C589   1.273       .  A
Ni587      Ni588   2.388       .  S
C589       C2052   1.442       .  S
C592       C2004   1.448       .  S
O593       Ni601   1.916       .  S
O593        C603   1.283       .  A
O594       Ni601   1.981       .  S
O594        C604   1.293       .  A
O595       Ni601   1.958       .  S
O595        C605   1.290       .  A
O596       Ni601   1.880       .  S
O596        C606   1.274       .  A
O597       Ni602   1.914       .  S
O597        C606   1.280       .  A
O598       Ni602   1.956       .  S
O598        C605   1.292       .  A
O599       Ni602   1.932       .  S
O599        C604   1.288       .  A
O600       Ni602   1.879       .  S
O600        C603   1.274       .  A
Ni601      Ni602   2.381       .  S
C603       C2040   1.469       .  S
C605        C784   1.545       .  S
C606       C2073   1.444       .  S
O607       Ni615   1.883       .  S
O607        C617   1.274       .  A
O608       Ni615   1.936       .  S
O608        C618   1.289       .  A
O609       Ni615   1.971       .  S
O609        C619   1.291       .  A
O610       Ni615   1.910       .  S
O610        C620   1.284       .  A
O611       Ni616   1.878       .  S
O611        C620   1.272       .  A
O612       Ni616   1.927       .  S
O612        C619   1.288       .  A
O613       Ni616   1.960       .  S
O613        C618   1.290       .  A
O614       Ni616   1.914       .  S
O614        C617   1.281       .  A
Ni615      Ni616   2.383       .  S
C617       C2124   1.450       .  S
C620       C2064   1.470       .  S
O621       Ni629   1.875       .  S
O621        C631   1.271       .  A
O622       Ni629   1.937       .  S
O622        C632   1.288       .  A
O623       Ni629   1.961       .  S
O623        C633   1.293       .  A
O624       Ni629   1.906       .  S
O624        C634   1.281       .  A
O625       Ni630   1.888       .  S
O625        C634   1.276       .  A
O626       Ni630   1.960       .  S
O626        C633   1.291       .  A
O627       Ni630   1.977       .  S
O627        C632   1.295       .  A
O628       Ni630   1.916       .  S
O628        C631   1.284       .  A
Ni629      Ni630   2.380       .  S
C631       C2028   1.463       .  S
C634       C2088   1.471       .  S
O635       Ni643   1.908       .  S
O635        C645   1.280       .  A
O636       Ni643   1.958       .  S
O636        C646   1.289       .  A
O637       Ni643   1.929       .  S
O637        C647   1.287       .  A
O638       Ni643   1.880       .  S
O638        C648   1.273       .  A
O639       Ni644   1.917       .  S
O639        C648   1.283       .  A
O640       Ni644   1.967       .  S
O640        C647   1.291       .  A
O641       Ni644   1.946       .  S
O641        C646   1.291       .  A
O642       Ni644   1.890       .  S
O642        C645   1.278       .  A
Ni643      Ni644   2.379       .  S
C645       C2100   1.473       .  S
C648       C2109   1.465       .  S
O649       Ni657   1.901       .  S
O649        C659   1.278       .  A
O650       Ni657   1.965       .  S
O650        C660   1.294       .  A
O651       Ni657   1.966       .  S
O651        C661   1.296       .  A
O652       Ni657   1.905       .  S
O652        C662   1.278       .  A
O653       Ni658   1.893       .  S
O653        C662   1.278       .  A
O654       Ni658   1.953       .  S
O654        C661   1.288       .  A
O655       Ni658   1.964       .  S
O655        C660   1.291       .  A
O656       Ni658   1.906       .  S
O656        C659   1.281       .  A
Ni657      Ni658   2.384       .  S
C659       C2136   1.474       .  S
C661       C1154   1.546       .  S
C662       C2016   1.461       .  S
C663       C1989   1.449       .  S
C663        N664   1.349       .  A
C663        N668   1.354       .  A
N664        C665   1.350       .  A
C665       C1965   1.455       .  S
C665        N666   1.354       .  A
N666        C667   1.355       .  A
C667       C1980   1.457       .  S
C667        N668   1.353       .  A
O669       Ni677   1.905       .  S
O669        C679   1.280       .  A
O670       Ni677   1.941       .  S
O670        C680   1.291       .  A
O671       Ni677   1.918       .  S
O671        C681   1.282       .  A
O672       Ni677   1.879       .  S
O672        C682   1.272       .  A
O673       Ni678   1.923       .  S
O673        C682   1.283       .  A
O674       Ni678   1.977       .  S
O674        C681   1.296       .  A
O675       Ni678   1.956       .  S
O675        C680   1.288       .  A
O676       Ni678   1.894       .  S
O676        C679   1.276       .  A
Ni677      Ni678   2.387       .  S
C679       C1953   1.460       .  S
C682       C1968   1.452       .  S
C683       C1917   1.441       .  S
C683        N684   1.343   1_554  A
C683        N688   1.345       .  A
N684        C685   1.347       .  A
C685       C1941   1.477       .  S
C685        N686   1.354       .  A
N686        C687   1.360   1_556  A
C687       C1929   1.473       .  S
C687        N688   1.350       .  A
C689       C1893   1.474       .  S
C689        N690   1.353   1_554  A
C689        N694   1.351       .  A
N690        C691   1.351       .  A
C691       C1908   1.481       .  S
C691        N692   1.353       .  A
N692        C693   1.352   1_556  A
C693       C1881   1.464       .  S
C693        N694   1.350       .  A
C695       C1956   1.468       .  S
C695        N696   1.346       .  A
C695        N700   1.348       .  A
N696        C697   1.355       .  A
C697       C1872   1.479       .  S
C697        N698   1.355       .  A
N698        C699   1.361       .  A
C699       C1860   1.469       .  S
C699        N700   1.349       .  A
O701       Ni709   1.906       .  S
O701        C711   1.278       .  A
O702       Ni709   1.974       .  S
O702        C712   1.296       .  A
O703       Ni709   1.962       .  S
O703        C713   1.293       .  A
O704       Ni709   1.902       .  S
O704        C714   1.277       .  A
O705       Ni710   1.899       .  S
O705        C714   1.280       .  A
O706       Ni710   1.944       .  S
O706        C713   1.288       .  A
O707       Ni710   1.958       .  S
O707        C712   1.289       .  A
O708       Ni710   1.903       .  S
O708        C711   1.280       .  A
Ni709      Ni710   2.385       .  S
C711       C1857   1.460       .  S
C714       C1884   1.466       .  S
O715       Ni723   1.878       .  S
O715        C725   1.274       .  A
O716       Ni723   1.911       .  S
O716        C726   1.280       .  A
O717       Ni723   1.922       .  S
O717        C727   1.284       .  A
O718       Ni723   1.888       .  S
O718        C728   1.276       .  A
O719       Ni724   1.922       .  S
O719        C728   1.282       .  A
O720       Ni724   1.970       .  S
O720        C727   1.293       .  A
O721       Ni724   1.949       .  S
O721        C726   1.288       .  A
O722       Ni724   1.900       .  S
O722        C725   1.279       .  A
Ni723      Ni724   2.387       .  S
C725       C1920   1.449       .  S
C728       C1869   1.478       .  S
O729       Ni737   1.917       .  S
O729        C739   1.282       .  A
O730       Ni737   1.959       .  S
O730        C740   1.289       .  A
O731       Ni737   1.919       .  S
O731        C741   1.284       .  A
O732       Ni737   1.885       .  S
O732        C742   1.276       .  A
O733       Ni738   1.901       .  S
O733        C742   1.279       .  A
O734       Ni738   1.938       .  S
O734        C741   1.286       .  A
O735       Ni738   1.934       .  S
O735        C740   1.287       .  A
O736       Ni738   1.886       .  S
O736        C739   1.276       .  A
Ni737      Ni738   2.383       .  S
C739       C1905   1.478       .  S
C740        C785   1.515       .  S
C742       C1944   1.462       .  S
O743       Ni751   1.882       .  S
O743        C753   1.273       .  A
O744       Ni751   1.930       .  S
O744        C754   1.287       .  A
O745       Ni751   1.946       .  S
O745        C755   1.289       .  A
O746       Ni751   1.908       .  S
O746        C756   1.278       .  A
O747       Ni752   1.904       .  S
O747        C756   1.279       .  A
O748       Ni752   1.958       .  S
O748        C755   1.289       .  A
O749       Ni752   1.956       .  S
O749        C754   1.290       .  A
O750       Ni752   1.906       .  S
O750        C753   1.282       .  A
Ni751      Ni752   2.386       .  S
C753       C1932   1.470       .  S
C756       C1977   1.454       .  S
O757       Ni765   1.896       .  S
O757        C767   1.276       .  A
O758       Ni765   1.952       .  S
O758        C768   1.293       .  A
O759       Ni765   1.973       .  S
O759        C769   1.289       .  A
O760       Ni765   1.912       .  S
O760        C770   1.281       .  A
O761       Ni766   1.883       .  S
O761        C770   1.276       .  A
O762       Ni766   1.932       .  S
O762        C769   1.291       .  A
O763       Ni766   1.956       .  S
O763        C768   1.289       .  A
O764       Ni766   1.913       .  S
O764        C767   1.278       .  A
Ni765      Ni766   2.382       .  S
C767       C1992   1.450       .  S
C770       C1896   1.460       .  S
O771       Ni777   1.914       .  S
O771        C792   1.272       .  A
O772       Ni795   1.961       .  S
O772        C781   1.275       .  A
O773       Ni777   1.922       .  S
O773       Ni795   1.946       .  S
O773       Ni789   1.947       .  S
O773        H796   0.967       .  S
C774        O791   1.299       .  A
C774        O783   1.273       .  A
C774       C1102   1.508       .  S
O775       Ni794   1.891       .  S
O775        C781   1.265       .  A
O776       Ni794   1.954       .  S
O776        C778   1.276       .  A
Ni777       O780   1.923       .  S
Ni777       O782   1.959       .  S
C778        O788   1.284       .  A
C778       C1008   1.540       .  S
O779       Ni795   1.961       .  S
O779        C785   1.277       .  A
O780        C785   1.270       .  A
O782        C784   1.283       .  A
O783       Ni794   1.902       .  S
C784        O790   1.289       .  A
H786        O787   0.965       .  S
O787       Ni795   1.916       .  S
O787       Ni789   1.928       .  S
O787       Ni794   1.916       .  S
O788       Ni789   1.996       .  S
Ni789       O793   1.988       .  S
Ni789       O791   1.987       .  S
O790       Ni795   2.012       .  S
C792        O793   1.292       .  A
C792        C887   1.519       .  S
O797       Ni803   1.935   1_545  S
O797        C818   1.275       .  A
O798       Ni821   1.986       .  S
O798        C807   1.290       .  A
O799       Ni803   1.926   1_455  S
O799       Ni821   1.946       .  S
O799       Ni815   1.916   1_465  S
O799        H822   0.965   1_565  S
C800        O817   1.286       .  A
C800        O809   1.273       .  A
C800       C1144   1.536       .  S
O801       Ni820   1.921       .  S
O801        C807   1.271       .  A
O802       Ni820   1.957   1_545  S
O802        C804   1.282       .  A
Ni803       O806   1.924   1_655  S
Ni803       O808   1.967       .  S
C804        O814   1.293       .  A
C804       C1217   1.546       .  S
O805       Ni821   1.981       .  S
O805        C811   1.287       .  A
O806        C811   1.274       .  A
O808        C810   1.285       .  A
O809       Ni820   1.927   1_645  S
C810        O816   1.287       .  A
C811       C1023   1.531       .  S
H812        O813   0.966       .  S
O813       Ni821   1.937   1_655  S
O813       Ni815   1.954   1_565  S
O813       Ni820   1.923   1_655  S
O814       Ni815   2.014   1_455  S
Ni815       O819   1.997       .  S
Ni815       O817   1.984       .  S
O816       Ni821   2.004   1_655  S
C818        O819   1.294       .  A
C818        C915   1.538       .  S
C823       C1848   1.477       .  S
C823        N824   1.352       .  A
C823        N828   1.358       .  A
N824        C825   1.349   1_565  A
C825       C1833   1.477       .  S
C825        N826   1.354       .  A
N826        C827   1.356       .  A
C827       C1821   1.483       .  S
C827        N828   1.360   1_545  A
C829       C1809   1.447       .  S
C829        N830   1.350       .  A
C829        N834   1.351   1_545  A
N830        C831   1.351       .  A
C831       C1788   1.467       .  S
C831        N832   1.351   1_545  A
N832        C833   1.350       .  A
C833       C1797   1.479       .  S
C833        N834   1.353       .  A
C835       C1752   1.484       .  S
C835        N836   1.361       .  A
C835        N840   1.356       .  A
N836        C837   1.355       .  A
C837       C1773   1.461       .  S
C837        N838   1.346       .  A
N838        C839   1.342       .  A
C839       C1761   1.445       .  S
C839        N840   1.352       .  A
O841       Ni849   1.912       .  S
O841        C851   1.280       .  A
O842       Ni849   1.982       .  S
O842        C852   1.294       .  A
O843       Ni849   1.957       .  S
O843        C853   1.295       .  A
O844       Ni849   1.886       .  S
O844        C854   1.275       .  A
O845       Ni850   1.905       .  S
O845        C854   1.281       .  A
O846       Ni850   1.970       .  S
O846        C853   1.292       .  A
O847       Ni850   1.952       .  S
O847        C852   1.294       .  A
O848       Ni850   1.881       .  S
O848        C851   1.273       .  A
Ni849      Ni850   2.385       .  S
C851       C1764   1.442       .  S
C854       C1785   1.460       .  S
O855       Ni863   1.915       .  S
O855        C865   1.282       .  A
O856       Ni863   1.969       .  S
O856        C866   1.294       .  A
O857       Ni863   1.973       .  S
O857        C867   1.292       .  A
O858       Ni863   1.906       .  S
O858        C868   1.279       .  A
O859       Ni864   1.915       .  S
O859        C868   1.281       .  A
O860       Ni864   1.975       .  S
O860        C867   1.296       .  A
O861       Ni864   1.971       .  S
O861        C866   1.293       .  A
O862       Ni864   1.902       .  S
O862        C865   1.278       .  A
Ni863      Ni864   2.375       .  S
C865       C1749   1.481       .  S
C868       C1824   1.477       .  S
C869       C1716   1.450       .  S
C869        N870   1.351       .  A
C869        N874   1.348       .  A
N870        C871   1.351       .  A
C871       C1725   1.484       .  S
C871        N872   1.358       .  A
N872        C873   1.356       .  A
C873       C1737   1.479       .  S
C873        N874   1.351       .  A
O875       Ni883   1.881       .  S
O875        C885   1.272       .  A
O876       Ni883   1.925       .  S
O876        C886   1.288       .  A
O877       Ni883   1.966       .  S
O877        C887   1.289       .  A
O878       Ni883   1.919       .  S
O878        C888   1.283       .  A
O879       Ni884   1.882       .  S
O879        C888   1.275       .  A
O880       Ni884   1.920       .  S
O880        C887   1.287       .  A
O881       Ni884   1.955       .  S
O881        C886   1.287       .  A
O882       Ni884   1.917       .  S
O882        C885   1.282       .  A
Ni883      Ni884   2.382       .  S
C885       C1713   1.448       .  S
C888       C1776   1.467       .  S
O889       Ni897   1.888       .  S
O889        C899   1.276       .  A
O890       Ni897   1.946       .  S
O890        C900   1.289       .  A
O891       Ni897   1.962       .  S
O891        C901   1.292       .  A
O892       Ni897   1.910       .  S
O892        C902   1.280       .  A
O893       Ni898   1.906       .  S
O893        C902   1.280       .  A
O894       Ni898   1.960       .  S
O894        C901   1.292       .  A
O895       Ni898   1.971       .  S
O895        C900   1.291       .  A
O896       Ni898   1.915       .  S
O896        C899   1.282       .  A
Ni897      Ni898   2.379       .  S
C899       C1800   1.476       .  S
C902       C1845   1.482       .  S
O903       Ni911   1.904       .  S
O903        C913   1.275       .  A
O904       Ni911   1.965       .  S
O904        C914   1.295       .  A
O905       Ni911   1.960       .  S
O905        C915   1.289       .  A
O906       Ni911   1.892       .  S
O906        C916   1.276       .  A
O907       Ni912   1.910       .  S
O907        C916   1.280       .  A
O908       Ni912   1.953       .  S
O908        C915   1.293       .  A
O909       Ni912   1.952       .  S
O909        C914   1.288       .  A
O910       Ni912   1.903       .  S
O910        C913   1.276       .  A
Ni911      Ni912   2.383       .  S
C913       C1812   1.446       .  S
C914       C1160   1.544       .  S
C916       C1740   1.473       .  S
O917       Ni925   1.901       .  S
O917        C927   1.278       .  A
O918       Ni925   1.943       .  S
O918        C928   1.287       .  A
O919       Ni925   1.943       .  S
O919        C929   1.290       .  A
O920       Ni925   1.900       .  S
O920        C930   1.278       .  A
O921       Ni926   1.916       .  S
O921        C930   1.282       .  A
O922       Ni926   1.959       .  S
O922        C929   1.289       .  A
O923       Ni926   1.951       .  S
O923        C928   1.288       .  A
O924       Ni926   1.911       .  S
O924        C927   1.281       .  A
Ni925      Ni926   2.383       .  S
C927       C1836   1.468       .  S
C930       C1728   1.482       .  S
C931       C1701   1.447       .  S
C931        N932   1.346   1_455  A
C931        N936   1.351       .  A
N932        C933   1.349       .  A
C933       C1689   1.443       .  S
C933        N934   1.351       .  A
N934        C935   1.358   1_655  A
C935       C1677   1.478       .  S
C935        N936   1.350       .  A
O937       Ni945   1.921       .  S
O937        C947   1.285       .  A
O938       Ni945   1.981       .  S
O938        C948   1.298       .  A
O939       Ni945   1.963       .  S
O939        C949   1.290       .  A
O940       Ni945   1.883       .  S
O940        C950   1.274       .  A
O941       Ni946   1.923       .  S
O941        C950   1.284       .  A
O942       Ni946   1.981       .  S
O942        C949   1.297       .  A
O943       Ni946   1.964       .  S
O943        C948   1.292       .  A
O944       Ni946   1.897       .  S
O944        C947   1.275       .  A
Ni945      Ni946   2.378       .  S
C947       C1665   1.477       .  S
C950       C1680   1.467       .  S
C951       C1632   1.484       .  S
C951        N952   1.366       .  A
C951        N956   1.347       .  A
N952        C953   1.363       .  A
C953       C1641   1.472       .  S
C953        N954   1.352       .  A
N954        C955   1.344       .  A
C955       C1653   1.452       .  S
C955        N956   1.343       .  A
C957       C1668   1.479       .  S
C957        N958   1.349       .  A
C957        N962   1.361       .  A
N958        C959   1.345       .  A
C959       C1620   1.459       .  S
C959        N960   1.351       .  A
N960        C961   1.356       .  A
C961       C1605   1.486       .  S
C961        N962   1.363       .  A
O963       Ni971   1.905       .  S
O963        C973   1.279       .  A
O964       Ni971   1.973       .  S
O964        C974   1.294       .  A
O965       Ni971   1.982       .  S
O965        C975   1.298       .  A
O966       Ni971   1.921       .  S
O966        C976   1.284       .  A
O967       Ni972   1.890       .  S
O967        C976   1.274       .  A
O968       Ni972   1.957       .  S
O968        C975   1.289       .  A
O969       Ni972   1.973       .  S
O969        C974   1.295       .  A
O970       Ni972   1.919       .  S
O970        C973   1.281       .  A
Ni971      Ni972   2.373       .  S
C973       C1608   1.480       .  S
C976       C1629   1.475       .  S
C977       C1593   1.479       .  S
C977        N978   1.345       .  A
C977        N982   1.360   1_455  A
N978        C979   1.341       .  A
C979       C1581   1.462       .  S
C979        N980   1.342   1_455  A
N980        C981   1.347       .  A
C981       C1572   1.457       .  S
C981        N982   1.359       .  A
O983       Ni991   1.865       .  S
O983        C993   1.271       .  A
O984       Ni991   1.917       .  S
O984        C994   1.285       .  A
O985       Ni991   1.971       .  S
O985        C995   1.291       .  A
O986       Ni991   1.919       .  S
O986        C996   1.284       .  A
O987       Ni992   1.873       .  S
O987        C996   1.272       .  A
O988       Ni992   1.938       .  S
O988        C995   1.289       .  A
O989       Ni992   1.957       .  S
O989        C994   1.289       .  A
O990       Ni992   1.904       .  S
O990        C993   1.282       .  A
Ni991      Ni992   2.383       .  S
C993       C1584   1.450       .  S
C995       C1150   1.530       .  S
C996       C1617   1.457       .  S
O997      Ni1005   1.896       .  S
O997       C1007   1.275       .  A
O998      Ni1005   1.954       .  S
O998       C1008   1.287       .  A
O999      Ni1005   1.940       .  S
O999       C1009   1.289       .  A
O1000     Ni1005   1.898       .  S
O1000      C1010   1.280       .  A
O1001     Ni1006   1.887       .  S
O1001      C1010   1.275       .  A
O1002     Ni1006   1.941       .  S
O1002      C1009   1.285       .  A
O1003     Ni1006   1.968       .  S
O1003      C1008   1.295       .  A
O1004     Ni1006   1.905       .  S
O1004      C1007   1.279       .  A
Ni1005    Ni1006   2.388       .  S
C1007      C1692   1.444       .  S
C1010      C1569   1.456       .  S
O1011     Ni1019   1.898       .  S
O1011      C1021   1.277       .  A
O1012     Ni1019   1.944       .  S
O1012      C1022   1.290       .  A
O1013     Ni1019   1.940       .  S
O1013      C1023   1.289       .  A
O1014     Ni1019   1.894       .  S
O1014      C1024   1.276       .  A
O1015     Ni1020   1.899       .  S
O1015      C1024   1.279       .  A
O1016     Ni1020   1.959       .  S
O1016      C1023   1.291       .  A
O1017     Ni1020   1.968       .  S
O1017      C1022   1.292       .  A
O1018     Ni1020   1.903       .  S
O1018      C1021   1.278       .  A
Ni1019    Ni1020   2.388       .  S
C1021      C1704   1.449       .  S
C1024      C1656   1.453       .  S
O1025     Ni1033   1.935       .  S
O1025      C1035   1.288       .  A
O1026     Ni1033   1.988       .  S
O1026      C1036   1.294       .  A
O1027     Ni1033   1.917       .  S
O1027      C1037   1.285       .  A
O1028     Ni1033   1.863       .  S
O1028      C1038   1.270       .  A
O1029     Ni1034   1.922       .  S
O1029      C1038   1.285       .  A
O1030     Ni1034   1.972       .  S
O1030      C1037   1.291       .  A
O1031     Ni1034   1.947       .  S
O1031      C1036   1.291       .  A
O1032     Ni1034   1.893       .  S
O1032      C1035   1.275       .  A
Ni1033    Ni1034   2.372       .  S
C1035      C1644   1.483       .  S
C1038      C1596   1.464       .  S
C1039      C1545   1.476       .  S
C1039      N1040   1.353       .  A
C1039      N1044   1.360       .  A
N1040      C1041   1.350       .  A
C1041      C1536   1.466       .  S
C1041      N1042   1.355       .  A
N1042      C1043   1.352       .  A
C1043      C1557   1.482       .  S
C1043      N1044   1.356       .  A
O1045     Ni1053   1.891       .  S
O1045      C1055   1.278       .  A
O1046     Ni1053   1.952       .  S
O1046      C1056   1.292       .  A
O1047     Ni1053   1.983       .  S
O1047      C1057   1.296       .  A
O1048     Ni1053   1.911       .  S
O1048      C1058   1.282       .  A
O1049     Ni1054   1.907       .  S
O1049      C1058   1.279       .  A
O1050     Ni1054   1.983       .  S
O1050      C1057   1.298       .  A
O1051     Ni1054   1.974       .  S
O1051      C1056   1.295       .  A
O1052     Ni1054   1.902       .  S
O1052      C1055   1.279       .  A
Ni1053    Ni1054   2.383       .  S
C1055      C1521   1.463       .  S
C1058      C1548   1.477       .  S
C1059      C1524   1.480       .  S
C1059      N1060   1.361       .  A
C1059      N1064   1.356       .  A
N1060      C1061   1.361       .  A
C1061      C1509   1.476       .  S
C1061      N1062   1.345       .  A
N1062      C1063   1.340       .  A
C1063      C1497   1.458       .  S
C1063      N1064   1.345       .  A
C1065      C1473   1.479       .  S
C1065      N1066   1.351       .  A
C1065      N1070   1.357   1_655  A
N1066      C1067   1.352       .  A
C1067      C1461   1.468       .  S
C1067      N1068   1.351   1_655  A
N1068      C1069   1.352       .  A
C1069      C1488   1.464       .  S
C1069      N1070   1.354       .  A
C1071      C1440   1.479       .  S
C1071      N1072   1.345       .  A
C1071      N1076   1.367   1_655  A
N1072      C1073   1.341       .  A
C1073      C1425   1.446       .  S
C1073      N1074   1.342   1_655  A
N1074      C1075   1.352       .  A
C1075      C1449   1.490       .  S
C1075      N1076   1.363       .  A
O1077     Ni1085   1.911       .  S
O1077      C1087   1.279       .  A
O1078     Ni1085   1.975       .  S
O1078      C1088   1.294       .  A
O1079     Ni1085   1.969       .  S
O1079      C1089   1.295       .  A
O1080     Ni1085   1.901       .  S
O1080      C1090   1.279       .  A
O1081     Ni1086   1.904       .  S
O1081      C1090   1.278       .  A
O1082     Ni1086   1.957       .  S
O1082      C1089   1.288       .  A
O1083     Ni1086   1.945       .  S
O1083      C1088   1.289       .  A
O1084     Ni1086   1.903       .  S
O1084      C1087   1.279       .  A
Ni1085    Ni1086   2.381       .  S
C1087      C1452   1.481       .  S
C1090      C1485   1.460       .  S
O1091     Ni1099   1.871       .  S
O1091      C1101   1.271       .  A
O1092     Ni1099   1.919       .  S
O1092      C1102   1.286       .  A
O1093     Ni1099   1.954       .  S
O1093      C1103   1.287       .  A
O1094     Ni1099   1.914       .  S
O1094      C1104   1.283       .  A
O1095     Ni1100   1.873       .  S
O1095      C1104   1.273       .  A
O1096     Ni1100   1.924       .  S
O1096      C1103   1.287       .  A
O1097     Ni1100   1.956       .  S
O1097      C1102   1.287       .  A
O1098     Ni1100   1.910       .  S
O1098      C1101   1.281       .  A
Ni1099    Ni1100   2.387       .  S
C1101      C1428   1.442       .  S
C1103      C1168   1.518       .  S
C1104      C1500   1.462       .  S
O1105     Ni1113   1.888       .  S
O1105      C1115   1.275       .  A
O1106     Ni1113   1.933       .  S
O1106      C1116   1.285       .  A
O1107     Ni1113   1.955       .  S
O1107      C1117   1.291       .  A
O1108     Ni1113   1.916       .  S
O1108      C1118   1.283       .  A
O1109     Ni1114   1.886       .  S
O1109      C1118   1.273       .  A
O1110     Ni1114   1.953       .  S
O1110      C1117   1.288       .  A
O1111     Ni1114   1.974       .  S
O1111      C1116   1.291       .  A
O1112     Ni1114   1.930       .  S
O1112      C1115   1.285       .  A
Ni1113    Ni1114   2.375       .  S
C1115      C1560   1.482       .  S
C1118      C1476   1.472       .  S
O1119     Ni1127   1.912       .  S
O1119      C1129   1.281       .  A
O1120     Ni1127   1.958       .  S
O1120      C1130   1.294       .  A
O1121     Ni1127   1.950       .  S
O1121      C1131   1.287       .  A
O1122     Ni1127   1.894       .  S
O1122      C1132   1.275       .  A
O1123     Ni1128   1.896       .  S
O1123      C1132   1.281       .  A
O1124     Ni1128   1.935       .  S
O1124      C1131   1.289       .  A
O1125     Ni1128   1.934       .  S
O1125      C1130   1.283       .  A
O1126     Ni1128   1.889       .  S
O1126      C1129   1.277       .  A
Ni1127    Ni1128   2.386       .  S
C1129      C1464   1.467       .  S
C1132      C1512   1.467       .  S
O1133     Ni1141   1.895       .  S
O1133      C1143   1.279       .  A
O1134     Ni1141   1.939       .  S
O1134      C1144   1.287       .  A
O1135     Ni1141   1.927       .  S
O1135      C1145   1.286       .  A
O1136     Ni1141   1.886       .  S
O1136      C1146   1.275       .  A
O1137     Ni1142   1.909       .  S
O1137      C1146   1.281       .  A
O1138     Ni1142   1.974       .  S
O1138      C1145   1.294       .  A
O1139     Ni1142   1.970       .  S
O1139      C1144   1.295       .  A
O1140     Ni1142   1.914       .  S
O1140      C1143   1.279       .  A
Ni1141    Ni1142   2.385       .  S
C1143      C1533   1.466       .  S
C1146      C1437   1.465       .  S
O1147     Ni1153   1.929       .  S
O1147      C1168   1.275       .  A
O1148     Ni1171   1.973   1_455  S
O1148      C1157   1.284       .  A
O1149     Ni1153   1.926       .  S
O1149     Ni1171   1.945       .  S
O1149     Ni1165   1.928       .  S
O1149      H1172   0.966       .  S
C1150      O1167   1.286       .  A
C1150      O1159   1.271       .  A
O1151     Ni1170   1.903       .  S
O1151      C1157   1.267       .  A
O1152     Ni1170   1.956       .  S
O1152      C1154   1.277       .  A
Ni1153     O1156   1.927       .  S
Ni1153     O1158   1.968       .  S
C1154      O1164   1.287       .  A
O1155     Ni1171   1.971       .  S
O1155      C1161   1.284       .  A
O1156      C1161   1.273       .  A
C1157      C1251   1.504       .  S
O1158      C1160   1.284       .  A
O1159     Ni1170   1.919       .  S
C1160      O1166   1.286       .  A
H1162      O1163   0.967       .  S
O1163     Ni1171   1.919   1_455  S
O1163     Ni1165   1.938   1_455  S
O1163     Ni1170   1.925       .  S
O1164     Ni1165   2.010   1_455  S
Ni1165     O1169   1.973       .  S
Ni1165     O1167   1.982   1_655  S
O1166     Ni1171   2.000       .  S
C1168      O1169   1.285       .  A
C1173      C1404   1.464   1_655  S
C1173      N1174   1.354       .  A
C1173      N1178   1.351   1_655  A
N1174      C1175   1.352   1_556  A
C1175      C1413   1.473       .  S
C1175      N1176   1.351       .  A
N1176      C1177   1.352       .  A
C1177      C1389   1.477       .  S
C1177      N1178   1.357   1_654  A
O1179     Ni1187   1.894       .  S
O1179      C1189   1.279       .  A
O1180     Ni1187   1.941       .  S
O1180      C1190   1.284       .  A
O1181     Ni1187   1.950       .  S
O1181      C1191   1.288       .  A
O1182     Ni1187   1.917       .  S
O1182      C1192   1.284       .  A
O1183     Ni1188   1.898       .  S
O1183      C1192   1.276       .  A
O1184     Ni1188   1.916       .  S
O1184      C1191   1.283       .  A
O1185     Ni1188   1.923       .  S
O1185      C1190   1.285       .  A
O1186     Ni1188   1.899       .  S
O1186      C1189   1.278       .  A
Ni1187    Ni1188   2.387       .  S
C1189      C1392   1.472       .  S
C1192      C1377   1.474       .  S
C1193      C1344   1.487   1_665  S
C1193      N1194   1.352   1_655  A
C1193      N1198   1.358       .  A
N1194      C1195   1.349   1_455  A
C1195      C1365   1.446   1_655  S
C1195      N1196   1.350       .  A
N1196      C1197   1.352       .  A
C1197      C1353   1.487       .  S
C1197      N1198   1.364       .  A
C1199      C1317   1.468       .  S
C1199      N1200   1.355       .  A
C1199      N1204   1.352       .  A
N1200      C1201   1.356       .  A
C1201      C1332   1.472       .  S
C1201      N1202   1.359       .  A
N1202      C1203   1.354       .  A
C1203      C1380   1.472       .  S
C1203      N1204   1.349       .  A
O1205     Ni1213   1.909       .  S
O1205      C1215   1.280       .  A
O1206     Ni1213   1.976       .  S
O1206      C1216   1.292       .  A
O1207     Ni1213   1.968       .  S
O1207      C1217   1.296       .  A
O1208     Ni1213   1.907       .  S
O1208      C1218   1.279       .  A
O1209     Ni1214   1.899       .  S
O1209      C1218   1.278       .  A
O1210     Ni1214   1.955       .  S
O1210      C1217   1.287       .  A
O1211     Ni1214   1.954       .  S
O1211      C1216   1.293       .  A
O1212     Ni1214   1.912       .  S
O1212      C1215   1.281       .  A
Ni1213    Ni1214   2.381       .  S
C1215      C1341   1.482       .  S
C1218      C1320   1.462       .  S
C1219      C1293   1.475       .  S
C1219      N1220   1.351   1_565  A
C1219      N1224   1.351   1_565  A
N1220      C1221   1.350   1_554  A
C1221      C1305   1.457       .  S
C1221      N1222   1.351   1_556  A
N1222      C1223   1.353       .  A
C1223      C1281   1.471       .  S
C1223      N1224   1.354       .  A
O1225     Ni1233   1.908       .  S
O1225      C1235   1.281       .  A
O1226     Ni1233   1.977       .  S
O1226      C1236   1.296       .  A
O1227     Ni1233   1.971       .  S
O1227      C1237   1.292       .  A
O1228     Ni1233   1.897       .  S
O1228      C1238   1.278       .  A
O1229     Ni1234   1.911       .  S
O1229      C1238   1.280       .  A
O1230     Ni1234   1.983       .  S
O1230      C1237   1.299       .  A
O1231     Ni1234   1.966       .  S
O1231      C1236   1.294       .  A
O1232     Ni1234   1.892       .  S
O1232      C1235   1.275       .  A
Ni1233    Ni1234   2.383       .  S
C1235      C1284   1.457       .  S
C1238      C1329   1.465       .  S
O1239     Ni1247   1.917       .  S
O1239      C1249   1.282       .  A
O1240     Ni1247   1.949       .  S
O1240      C1250   1.285       .  A
O1241     Ni1247   1.922       .  S
O1241      C1251   1.288       .  A
O1242     Ni1247   1.896       .  S
O1242      C1252   1.277       .  A
O1243     Ni1248   1.894       .  S
O1243      C1252   1.279       .  A
O1244     Ni1248   1.938       .  S
O1244      C1251   1.282       .  A
O1245     Ni1248   1.932       .  S
O1245      C1250   1.286       .  A
O1246     Ni1248   1.893       .  S
O1246      C1249   1.277       .  A
Ni1247    Ni1248   2.388       .  S
C1249      C1401   1.469       .  S
C1252      C1308   1.464       .  S
O1253     Ni1261   1.899       .  S
O1253      C1263   1.277       .  A
O1254     Ni1261   1.943       .  S
O1254      C1264   1.289       .  A
O1255     Ni1261   1.933       .  S
O1255      C1265   1.289       .  A
O1256     Ni1261   1.897       .  S
O1256      C1266   1.277       .  A
O1257     Ni1262   1.899       .  S
O1257      C1266   1.279       .  A
O1258     Ni1262   1.954       .  S
O1258      C1265   1.288       .  A
O1259     Ni1262   1.966       .  S
O1259      C1264   1.291       .  A
O1260     Ni1262   1.900       .  S
O1260      C1263   1.275       .  A
Ni1261    Ni1262   2.385       .  S
C1263      C1368   1.443       .  S
C1266      C1296   1.466       .  S
O1267     Ni1275   1.884       .  S
O1267      C1277   1.273       .  A
O1268     Ni1275   1.947       .  S
O1268      C1278   1.289       .  A
O1269     Ni1275   1.956       .  S
O1269      C1279   1.289       .  A
O1270     Ni1275   1.911       .  S
O1270      C1280   1.281       .  A
O1271     Ni1276   1.894       .  S
O1271      C1280   1.277       .  A
O1272     Ni1276   1.960       .  S
O1272      C1279   1.290       .  A
O1273     Ni1276   2.003       .  S
O1273      C1278   1.300       .  A
O1274     Ni1276   1.938       .  S
O1274      C1277   1.288       .  A
Ni1275    Ni1276   2.375       .  S
C1277      C1356   1.485       .  S
C1280      C1416   1.472       .  S
C1281      C1282   1.405       .  A
C1281      C1286   1.414       .  A
C1282      C1283   1.389       .  A
C1282      H1287   1.083       .  S
C1283      C1284   1.409       .  A
C1283      C1290   1.446       .  S
C1284      C1285   1.399       .  A
C1285      C1286   1.392       .  A
C1285      H1288   1.083       .  S
C1286      C1289   1.444   1_554  S
C1289      N1291   1.157       .  T
C1290      N1292   1.157       .  T
C1293      C1294   1.407       .  A
C1293      C1298   1.415       .  A
C1294      C1295   1.391       .  A
C1294      H1299   1.084       .  S
C1295      C1296   1.410       .  A
C1295      C1302   1.445       .  S
C1296      C1297   1.401       .  A
C1297      C1298   1.390       .  A
C1297      H1300   1.085       .  S
C1298      C1301   1.444       .  S
C1301      N1303   1.157       .  T
C1302      N1304   1.157       .  T
C1305      C1306   1.402       .  A
C1305      C1310   1.408       .  A
C1306      C1307   1.393       .  A
C1306      H1311   1.085       .  S
C1307      C1308   1.412       .  A
C1307      C1314   1.445       .  S
C1308      C1309   1.404       .  A
C1309      C1310   1.387       .  A
C1309      H1312   1.085       .  S
C1310      C1313   1.446   1_545  S
C1313      N1315   1.157       .  T
C1314      N1316   1.157       .  T
C1317      C1318   1.403       .  A
C1317      C1322   1.411       .  A
C1318      C1319   1.388       .  A
C1318      H1323   1.085       .  S
C1319      C1320   1.408       .  A
C1319      C1326   1.446       .  S
C1320      C1321   1.403       .  A
C1321      C1322   1.398       .  A
C1321      H1324   1.085       .  S
C1322      C1325   1.444       .  S
C1325      N1327   1.157       .  T
C1326      N1328   1.157       .  T
C1329      C1330   1.400       .  A
C1329      C1334   1.410       .  A
C1330      C1331   1.398       .  A
C1330      H1335   1.085       .  S
C1331      C1332   1.417       .  A
C1331      C1338   1.444       .  S
C1332      C1333   1.402       .  A
C1333      C1334   1.389       .  A
C1333      H1336   1.085       .  S
C1334      C1337   1.444       .  S
C1337      N1339   1.157       .  T
C1338      N1340   1.157       .  T
C1341      C1342   1.403       .  A
C1341      C1346   1.414       .  A
C1342      C1343   1.399       .  A
C1342      H1347   1.084       .  S
C1343      C1344   1.417       .  A
C1343      C1350   1.443   1_455  S
C1344      C1345   1.408   1_545  A
C1345      C1346   1.395   1_565  A
C1345      H1348   1.085       .  S
C1346      C1349   1.445   1_545  S
C1349      N1351   1.157       .  T
C1350      N1352   1.157       .  T
C1353      C1354   1.399   1_565  A
C1353      C1358   1.423       .  A
C1354      C1355   1.392       .  A
C1354      H1359   1.084       .  S
C1355      C1356   1.422       .  A
C1355      C1362   1.445       .  S
C1356      C1357   1.401       .  A
C1357      C1358   1.400   1_545  A
C1357      H1360   1.084       .  S
C1358      C1361   1.445       .  S
C1361      N1363   1.158       .  T
C1362      N1364   1.157       .  T
C1365      C1366   1.401       .  A
C1365      C1370   1.403       .  A
C1366      C1367   1.384       .  A
C1366      H1371   1.086       .  S
C1367      C1368   1.401       .  A
C1367      C1374   1.446       .  S
C1368      C1369   1.404       .  A
C1369      C1370   1.397       .  A
C1369      H1372   1.084       .  S
C1370      C1373   1.442   1_455  S
C1373      N1375   1.157       .  T
C1374      N1376   1.157       .  T
C1377      C1378   1.402       .  A
C1377      C1382   1.415       .  A
C1378      C1379   1.393       .  A
C1378      H1383   1.085       .  S
C1379      C1380   1.412       .  A
C1379      C1386   1.445       .  S
C1380      C1381   1.403       .  A
C1381      C1382   1.397       .  A
C1381      H1384   1.085       .  S
C1382      C1385   1.445       .  S
C1385      N1387   1.157       .  T
C1386      N1388   1.157       .  T
C1389      C1390   1.404   1_655  A
C1389      C1394   1.415       .  A
C1390      C1391   1.393       .  A
C1390      H1395   1.085   1_554  S
C1391      C1392   1.416       .  A
C1391      C1398   1.445       .  S
C1392      C1393   1.403       .  A
C1393      C1394   1.388   1_455  A
C1393      H1396   1.085       .  S
C1394      C1397   1.443       .  S
C1397      N1399   1.157       .  T
C1398      N1400   1.157       .  T
C1401      C1402   1.400       .  A
C1401      C1406   1.415       .  A
C1402      C1403   1.397       .  A
C1402      H1407   1.085       .  S
C1403      C1404   1.416       .  A
C1403      C1410   1.444       .  S
C1404      C1405   1.397       .  A
C1405      C1406   1.390       .  A
C1405      H1408   1.085   1_455  S
C1406      C1409   1.444       .  S
C1409      N1411   1.157       .  T
C1410      N1412   1.157       .  T
C1413      C1414   1.405       .  A
C1413      C1418   1.408       .  A
C1414      C1415   1.392       .  A
C1414      H1419   1.081       .  S
C1415      C1416   1.409       .  A
C1415      C1422   1.445       .  S
C1416      C1417   1.407       .  A
C1417      C1418   1.393       .  A
C1417      H1420   1.083       .  S
C1418      C1421   1.441   1_554  S
C1421      N1423   1.156       .  T
C1422      N1424   1.157       .  T
C1425      C1426   1.393       .  A
C1425      C1430   1.416       .  A
C1426      C1427   1.388       .  A
C1426      H1431   1.085   1_655  S
C1427      C1428   1.411       .  A
C1427      C1434   1.441       .  S
C1428      C1429   1.390       .  A
C1429      C1430   1.385       .  A
C1429      H1432   1.086       .  S
C1430      C1433   1.446       .  S
C1433      N1435   1.158       .  T
C1434      N1436   1.156       .  T
C1437      C1438   1.393       .  A
C1437      C1442   1.417       .  A
C1438      C1439   1.392       .  A
C1438      H1443   1.086       .  S
C1439      C1440   1.427       .  A
C1439      C1446   1.443       .  S
C1440      C1441   1.396       .  A
C1441      C1442   1.389       .  A
C1441      H1444   1.083   1_655  S
C1442      C1445   1.442       .  S
C1445      N1447   1.156       .  T
C1446      N1448   1.157       .  T
C1449      C1450   1.410       .  A
C1449      C1454   1.415       .  A
C1450      C1451   1.387       .  A
C1450      H1455   1.084       .  S
C1451      C1452   1.411       .  A
C1451      C1458   1.447       .  S
C1452      C1453   1.408       .  A
C1453      C1454   1.403       .  A
C1453      H1456   1.085       .  S
C1454      C1457   1.441       .  S
C1457      N1459   1.156       .  T
C1458      N1460   1.157       .  T
C1461      C1462   1.403       .  A
C1461      C1466   1.413       .  A
C1462      C1463   1.393       .  A
C1462      H1467   1.083       .  S
C1463      C1464   1.411       .  A
C1463      C1470   1.444       .  S
C1464      C1465   1.403       .  A
C1465      C1466   1.390       .  A
C1465      H1468   1.085       .  S
C1466      C1469   1.445       .  S
C1469      N1471   1.157       .  T
C1470      N1472   1.157       .  T
C1473      C1474   1.404       .  A
C1473      C1478   1.418       .  A
C1474      C1475   1.390       .  A
C1474      H1479   1.083       .  S
C1475      C1476   1.415       .  A
C1475      C1482   1.446       .  S
C1476      C1477   1.401       .  A
C1477      C1478   1.394       .  A
C1477      H1480   1.085       .  S
C1478      C1481   1.444       .  S
C1481      N1483   1.157       .  T
C1482      N1484   1.157       .  T
C1485      C1486   1.399       .  A
C1485      C1490   1.411       .  A
C1486      C1487   1.393       .  A
C1486      H1491   1.085       .  S
C1487      C1488   1.413       .  A
C1487      C1494   1.445       .  S
C1488      C1489   1.401       .  A
C1489      C1490   1.393       .  A
C1489      H1492   1.085       .  S
C1490      C1493   1.444       .  S
C1493      N1495   1.157       .  T
C1494      N1496   1.157   1_455  T
C1497      C1498   1.405       .  A
C1497      C1502   1.405       .  A
C1498      C1499   1.390       .  A
C1498      H1503   1.085       .  S
C1499      C1500   1.408       .  A
C1499      C1506   1.445       .  S
C1500      C1501   1.407       .  A
C1501      C1502   1.389       .  A
C1501      H1504   1.085       .  S
C1502      C1505   1.444       .  S
C1505      N1507   1.157       .  T
C1506      N1508   1.157       .  T
C1509      C1510   1.402       .  A
C1509      C1514   1.420       .  A
C1510      C1511   1.394       .  A
C1510      H1515   1.079       .  S
C1511      C1512   1.415       .  A
C1511      C1518   1.446       .  S
C1512      C1513   1.398       .  A
C1513      C1514   1.383       .  A
C1513      H1516   1.085       .  S
C1514      C1517   1.446       .  S
C1517      N1519   1.157       .  T
C1518      N1520   1.158       .  T
C1521      C1522   1.401       .  A
C1521      C1526   1.407       .  A
C1522      C1523   1.391       .  A
C1522      H1527   1.086       .  S
C1523      C1524   1.415       .  A
C1523      C1530   1.442       .  S
C1524      C1525   1.411       .  A
C1525      C1526   1.389       .  A
C1525      H1528   1.084       .  S
C1526      C1529   1.447       .  S
C1529      N1531   1.157       .  T
C1530      N1532   1.157       .  T
C1533      C1534   1.403       .  A
C1533      C1538   1.408       .  A
C1534      C1535   1.386       .  A
C1534      H1539   1.084       .  S
C1535      C1536   1.406       .  A
C1535      C1542   1.440       .  S
C1536      C1537   1.406       .  A
C1537      C1538   1.398       .  A
C1537      H1540   1.085       .  S
C1538      C1541   1.440       .  S
C1541      N1543   1.156       .  T
C1542      N1544   1.155       .  T
C1545      C1546   1.407       .  A
C1545      C1550   1.409       .  A
C1546      C1547   1.395       .  A
C1546      H1551   1.084       .  S
C1547      C1548   1.412       .  A
C1547      C1554   1.444       .  S
C1548      C1549   1.404       .  A
C1549      C1550   1.393       .  A
C1549      H1552   1.079       .  S
C1550      C1553   1.443       .  S
C1553      N1555   1.157       .  T
C1554      N1556   1.157       .  T
C1557      C1558   1.407       .  A
C1557      C1562   1.413       .  A
C1558      C1559   1.399       .  A
C1558      H1563   1.083       .  S
C1559      C1560   1.410       .  A
C1559      C1566   1.441       .  S
C1560      C1561   1.407       .  A
C1561      C1562   1.395       .  A
C1561      H1564   1.085       .  S
C1562      C1565   1.444       .  S
C1565      N1567   1.157       .  T
C1566      N1568   1.156       .  T
C1569      C1570   1.400       .  A
C1569      C1574   1.405       .  A
C1570      C1571   1.391       .  A
C1570      H1575   1.085       .  S
C1571      C1572   1.411       .  A
C1571      C1578   1.444       .  S
C1572      C1573   1.404       .  A
C1573      C1574   1.390       .  A
C1573      H1576   1.085       .  S
C1574      C1577   1.443       .  S
C1577      N1579   1.157       .  T
C1578      N1580   1.157       .  T
C1581      C1582   1.412       .  A
C1581      C1586   1.410       .  A
C1582      C1583   1.382       .  A
C1582      H1587   1.082       .  S
C1583      C1584   1.398       .  A
C1583      C1590   1.446       .  S
C1584      C1585   1.404       .  A
C1585      C1586   1.386       .  A
C1585      H1588   1.085       .  S
C1586      C1589   1.446   1_455  S
C1589      N1591   1.157       .  T
C1590      N1592   1.157       .  T
C1593      C1594   1.417       .  A
C1593      C1598   1.409       .  A
C1594      C1595   1.388       .  A
C1594      H1599   1.082       .  S
C1595      C1596   1.400       .  A
C1595      C1602   1.446       .  S
C1596      C1597   1.410       .  A
C1597      C1598   1.390       .  A
C1597      H1600   1.085       .  S
C1598      C1601   1.442   1_455  S
C1601      N1603   1.156       .  T
C1602      N1604   1.157       .  T
C1605      C1606   1.410       .  A
C1605      C1610   1.412       .  A
C1606      C1607   1.395       .  A
C1606      H1611   1.083       .  S
C1607      C1608   1.410       .  A
C1607      C1614   1.445       .  S
C1608      C1609   1.407       .  A
C1609      C1610   1.398       .  A
C1609      H1612   1.083       .  S
C1610      C1613   1.444       .  S
C1613      N1615   1.157       .  T
C1614      N1616   1.157       .  T
C1617      C1618   1.396       .  A
C1617      C1622   1.404       .  A
C1618      C1619   1.387       .  A
C1618      H1623   1.086       .  S
C1619      C1620   1.414       .  A
C1619      C1626   1.445       .  S
C1620      C1621   1.403       .  A
C1621      C1622   1.396       .  A
C1621      H1624   1.084       .  S
C1622      C1625   1.437       .  S
C1625      N1627   1.155       .  T
C1626      N1628   1.157       .  T
C1629      C1630   1.396       .  A
C1629      C1634   1.417       .  A
C1630      C1631   1.393       .  A
C1630      H1635   1.085       .  S
C1631      C1632   1.426       .  A
C1631      C1638   1.446       .  S
C1632      C1633   1.401       .  A
C1633      C1634   1.393       .  A
C1633      H1636   1.084       .  S
C1634      C1637   1.443       .  S
C1637      N1639   1.156       .  T
C1638      N1640   1.158       .  T
C1641      C1642   1.401       .  A
C1641      C1646   1.411       .  A
C1642      C1643   1.392       .  A
C1642      H1647   1.086       .  S
C1643      C1644   1.410       .  A
C1643      C1650   1.435       .  S
C1644      C1645   1.409       .  A
C1645      C1646   1.402       .  A
C1645      H1648   1.084       .  S
C1646      C1649   1.444       .  S
C1649      N1651   1.157       .  T
C1650      N1652   1.153       .  T
C1653      C1654   1.395       .  A
C1653      C1658   1.414       .  A
C1654      C1655   1.390       .  A
C1654      H1659   1.085       .  S
C1655      C1656   1.412       .  A
C1655      C1662   1.441       .  S
C1656      C1657   1.396       .  A
C1657      C1658   1.389       .  A
C1657      H1660   1.085       .  S
C1658      C1661   1.446       .  S
C1661      N1663   1.158       .  T
C1662      N1664   1.156       .  T
C1665      C1666   1.398       .  A
C1665      C1670   1.419       .  A
C1666      C1667   1.392       .  A
C1666      H1671   1.085       .  S
C1667      C1668   1.421       .  A
C1667      C1674   1.446       .  S
C1668      C1669   1.401       .  A
C1669      C1670   1.399       .  A
C1669      H1672   1.084       .  S
C1670      C1673   1.445       .  S
C1673      N1675   1.157       .  T
C1674      N1676   1.158       .  T
C1677      C1678   1.401       .  A
C1677      C1682   1.421       .  A
C1678      C1679   1.386       .  A
C1678      H1683   1.085   1_455  S
C1679      C1680   1.416       .  A
C1679      C1686   1.447       .  S
C1680      C1681   1.398       .  A
C1681      C1682   1.397       .  A
C1681      H1684   1.084       .  S
C1682      C1685   1.445       .  S
C1685      N1687   1.158       .  T
C1686      N1688   1.157   1_455  T
C1689      C1690   1.400       .  A
C1689      C1694   1.403       .  A
C1690      C1691   1.390       .  A
C1690      H1695   1.085       .  S
C1691      C1692   1.404       .  A
C1691      C1698   1.445       .  S
C1692      C1693   1.400       .  A
C1693      C1694   1.392       .  A
C1693      H1696   1.084       .  S
C1694      C1697   1.444       .  S
C1697      N1699   1.157       .  T
C1698      N1700   1.157       .  T
C1701      C1702   1.400       .  A
C1701      C1706   1.398       .  A
C1702      C1703   1.392       .  A
C1702      H1707   1.085       .  S
C1703      C1704   1.406       .  A
C1703      C1710   1.444       .  S
C1704      C1705   1.404       .  A
C1705      C1706   1.391       .  A
C1705      H1708   1.083       .  S
C1706      C1709   1.443       .  S
C1709      N1711   1.157       .  T
C1710      N1712   1.157       .  T
C1713      C1714   1.402       .  A
C1713      C1718   1.407       .  A
C1714      C1715   1.391       .  A
C1714      H1719   1.084       .  S
C1715      C1716   1.399       .  A
C1715      C1722   1.441       .  S
C1716      C1717   1.403       .  A
C1717      C1718   1.391       .  A
C1717      H1720   1.085       .  S
C1718      C1721   1.445       .  S
C1721      N1723   1.157       .  T
C1722      N1724   1.157       .  T
C1725      C1726   1.401       .  A
C1725      C1730   1.419       .  A
C1726      C1727   1.391       .  A
C1726      H1731   1.085       .  S
C1727      C1728   1.417       .  A
C1727      C1734   1.441       .  S
C1728      C1729   1.404       .  A
C1729      C1730   1.398       .  A
C1729      H1732   1.085       .  S
C1730      C1733   1.444       .  S
C1733      N1735   1.157       .  T
C1734      N1736   1.156       .  T
C1737      C1738   1.407       .  A
C1737      C1742   1.419       .  A
C1738      C1739   1.395       .  A
C1738      H1743   1.085       .  S
C1739      C1740   1.411       .  A
C1739      C1746   1.443       .  S
C1740      C1741   1.403       .  A
C1741      C1742   1.390       .  A
C1741      H1744   1.085       .  S
C1742      C1745   1.446       .  S
C1745      N1747   1.158       .  T
C1746      N1748   1.157       .  T
C1749      C1750   1.404       .  A
C1749      C1754   1.416       .  A
C1750      C1751   1.397       .  A
C1750      H1755   1.085       .  S
C1751      C1752   1.419       .  A
C1751      C1758   1.445       .  S
C1752      C1753   1.404       .  A
C1753      C1754   1.393       .  A
C1753      H1756   1.085       .  S
C1754      C1757   1.444       .  S
C1757      N1759   1.157       .  T
C1758      N1760   1.158       .  T
C1761      C1762   1.402       .  A
C1761      C1766   1.401       .  A
C1762      C1763   1.390       .  A
C1762      H1767   1.085       .  S
C1763      C1764   1.402       .  A
C1763      C1770   1.445       .  S
C1764      C1765   1.401       .  A
C1765      C1766   1.391       .  A
C1765      H1768   1.085       .  S
C1766      C1769   1.443       .  S
C1769      N1771   1.157       .  T
C1770      N1772   1.157       .  T
C1773      C1774   1.403       .  A
C1773      C1778   1.408       .  A
C1774      C1775   1.391       .  A
C1774      H1779   1.086       .  S
C1775      C1776   1.410       .  A
C1775      C1782   1.441       .  S
C1776      C1777   1.405       .  A
C1777      C1778   1.392       .  A
C1777      H1780   1.085       .  S
C1778      C1781   1.444       .  S
C1781      N1783   1.157       .  T
C1782      N1784   1.156       .  T
C1785      C1786   1.401       .  A
C1785      C1790   1.408       .  A
C1786      C1787   1.393       .  A
C1786      H1791   1.085       .  S
C1787      C1788   1.415       .  A
C1787      C1794   1.445       .  S
C1788      C1789   1.403       .  A
C1789      C1790   1.387       .  A
C1789      H1792   1.085   1_545  S
C1790      C1793   1.440       .  S
C1793      N1795   1.155       .  T
C1794      N1796   1.158       .  T
C1797      C1798   1.408       .  A
C1797      C1802   1.412       .  A
C1798      C1799   1.392       .  A
C1798      H1803   1.084       .  S
C1799      C1800   1.412       .  A
C1799      C1806   1.445       .  S
C1800      C1801   1.408       .  A
C1801      C1802   1.392       .  A
C1801      H1804   1.085       .  S
C1802      C1805   1.444       .  S
C1805      N1807   1.157       .  T
C1806      N1808   1.157       .  T
C1809      C1810   1.401       .  A
C1809      C1814   1.402       .  A
C1810      C1811   1.394       .  A
C1810      H1815   1.085       .  S
C1811      C1812   1.405       .  A
C1811      C1818   1.446       .  S
C1812      C1813   1.400       .  A
C1813      C1814   1.392       .  A
C1813      H1816   1.085       .  S
C1814      C1817   1.444       .  S
C1817      N1819   1.157   1_545  T
C1818      N1820   1.158       .  T
C1821      C1822   1.407       .  A
C1821      C1826   1.413       .  A
C1822      C1823   1.395       .  A
C1822      H1827   1.084       .  S
C1823      C1824   1.411       .  A
C1823      C1830   1.445       .  S
C1824      C1825   1.407       .  A
C1825      C1826   1.398       .  A
C1825      H1828   1.085       .  S
C1826      C1829   1.444   1_545  S
C1829      N1831   1.157       .  T
C1830      N1832   1.157       .  T
C1833      C1834   1.403       .  A
C1833      C1838   1.419       .  A
C1834      C1835   1.393       .  A
C1834      H1839   1.085       .  S
C1835      C1836   1.411       .  A
C1835      C1842   1.444       .  S
C1836      C1837   1.400       .  A
C1837      C1838   1.395       .  A
C1837      H1840   1.085       .  S
C1838      C1841   1.445       .  S
C1841      N1843   1.158       .  T
C1842      N1844   1.157       .  T
C1845      C1846   1.407       .  A
C1845      C1850   1.415       .  A
C1846      C1847   1.396       .  A
C1846      H1851   1.085       .  S
C1847      C1848   1.412       .  A
C1847      C1854   1.444       .  S
C1848      C1849   1.405       .  A
C1849      C1850   1.394       .  A
C1849      H1852   1.085       .  S
C1850      C1853   1.445       .  S
C1853      N1855   1.157       .  T
C1854      N1856   1.157       .  T
C1857      C1858   1.395       .  A
C1857      C1862   1.408       .  A
C1858      C1859   1.394       .  A
C1858      H1863   1.084       .  S
C1859      C1860   1.422       .  A
C1859      C1866   1.446       .  S
C1860      C1861   1.397       .  A
C1861      C1862   1.388       .  A
C1861      H1864   1.085       .  S
C1862      C1865   1.437       .  S
C1865      N1867   1.154       .  T
C1866      N1868   1.158       .  T
C1869      C1870   1.406       .  A
C1869      C1874   1.417       .  A
C1870      C1871   1.404       .  A
C1870      H1875   1.085       .  S
C1871      C1872   1.417       .  A
C1871      C1878   1.444       .  S
C1872      C1873   1.399       .  A
C1873      C1874   1.384       .  A
C1873      H1876   1.086       .  S
C1874      C1877   1.444       .  S
C1877      N1879   1.156       .  T
C1878      N1880   1.158       .  T
C1881      C1882   1.401       .  A
C1881      C1886   1.412       .  A
C1882      C1883   1.395       .  A
C1882      H1887   1.084       .  S
C1883      C1884   1.414       .  A
C1883      C1890   1.445       .  S
C1884      C1885   1.401       .  A
C1885      C1886   1.389       .  A
C1885      H1888   1.085       .  S
C1886      C1889   1.445       .  S
C1889      N1891   1.157       .  T
C1890      N1892   1.157       .  T
C1893      C1894   1.406       .  A
C1893      C1898   1.417       .  A
C1894      C1895   1.391       .  A
C1894      H1899   1.085   1_554  S
C1895      C1896   1.410       .  A
C1895      C1902   1.443       .  S
C1896      C1897   1.399       .  A
C1897      C1898   1.390       .  A
C1897      H1900   1.085       .  S
C1898      C1901   1.445       .  S
C1901      N1903   1.157       .  T
C1902      N1904   1.156   1_554  T
C1905      C1906   1.406       .  A
C1905      C1910   1.411       .  A
C1906      C1907   1.390       .  A
C1906      H1911   1.084       .  S
C1907      C1908   1.412       .  A
C1907      C1914   1.443       .  S
C1908      C1909   1.410       .  A
C1909      C1910   1.395       .  A
C1909      H1912   1.085       .  S
C1910      C1913   1.442       .  S
C1913      N1915   1.156       .  T
C1914      N1916   1.157       .  T
C1917      C1918   1.390       .  A
C1917      C1922   1.412       .  A
C1918      C1919   1.385       .  A
C1918      H1923   1.079   1_554  S
C1919      C1920   1.410       .  A
C1919      C1926   1.440       .  S
C1920      C1921   1.398       .  A
C1921      C1922   1.387       .  A
C1921      H1924   1.086       .  S
C1922      C1925   1.446       .  S
C1925      N1927   1.157       .  T
C1926      N1928   1.155       .  T
C1929      C1930   1.400       .  A
C1929      C1934   1.418       .  A
C1930      C1931   1.389       .  A
C1930      H1935   1.083   1_554  S
C1931      C1932   1.417       .  A
C1931      C1938   1.445       .  S
C1932      C1933   1.401       .  A
C1933      C1934   1.389       .  A
C1933      H1936   1.085       .  S
C1934      C1937   1.445       .  S
C1937      N1939   1.157       .  T
C1938      N1940   1.157   1_554  T
C1941      C1942   1.413       .  A
C1941      C1946   1.413       .  A
C1942      C1943   1.389       .  A
C1942      H1947   1.084       .  S
C1943      C1944   1.404       .  A
C1943      C1950   1.446       .  S
C1944      C1945   1.403       .  A
C1945      C1946   1.390       .  A
C1945      H1948   1.085       .  S
C1946      C1949   1.442       .  S
C1949      N1951   1.156       .  T
C1950      N1952   1.157       .  T
C1953      C1954   1.397       .  A
C1953      C1958   1.413       .  A
C1954      C1955   1.392       .  A
C1954      H1959   1.085       .  S
C1955      C1956   1.418       .  A
C1955      C1962   1.445       .  S
C1956      C1957   1.401       .  A
C1957      C1958   1.390       .  A
C1957      H1960   1.085       .  S
C1958      C1961   1.445       .  S
C1961      N1963   1.157       .  T
C1962      N1964   1.157       .  T
C1965      C1966   1.401       .  A
C1965      C1970   1.405       .  A
C1966      C1967   1.391       .  A
C1966      H1971   1.085       .  S
C1967      C1968   1.407       .  A
C1967      C1974   1.446       .  S
C1968      C1969   1.401       .  A
C1969      C1970   1.396       .  A
C1969      H1972   1.084       .  S
C1970      C1973   1.443       .  S
C1973      N1975   1.157       .  T
C1974      N1976   1.157       .  T
C1977      C1978   1.400       .  A
C1977      C1982   1.405       .  A
C1978      C1979   1.391       .  A
C1978      H1983   1.083       .  S
C1979      C1980   1.403       .  A
C1979      C1986   1.443       .  S
C1980      C1981   1.405       .  A
C1981      C1982   1.399       .  A
C1981      H1984   1.085       .  S
C1982      C1985   1.444       .  S
C1985      N1987   1.157       .  T
C1986      N1988   1.157       .  T
C1989      C1990   1.400       .  A
C1989      C1994   1.403       .  A
C1990      C1991   1.389       .  A
C1990      H1995   1.086       .  S
C1991      C1992   1.403       .  A
C1991      C1998   1.445       .  S
C1992      C1993   1.404       .  A
C1993      C1994   1.397       .  A
C1993      H1996   1.084       .  S
C1994      C1997   1.444       .  S
C1997      N1999   1.157       .  T
C1998      N2000   1.157       .  T
C2001      C2002   1.399       .  A
C2001      C2006   1.401       .  A
C2002      C2003   1.392       .  A
C2002      H2007   1.085       .  S
C2003      C2004   1.407       .  A
C2003      C2010   1.444       .  S
C2004      C2005   1.402       .  A
C2005      C2006   1.390       .  A
C2005      H2008   1.082       .  S
C2006      C2009   1.444       .  S
C2009      N2011   1.157   1_556  T
C2010      N2012   1.157       .  T
C2013      C2014   1.397       .  A
C2013      C2018   1.412       .  A
C2014      C2015   1.386       .  A
C2014      H2019   1.084       .  S
C2015      C2016   1.410       .  A
C2015      C2022   1.442       .  S
C2016      C2017   1.401       .  A
C2017      C2018   1.397       .  A
C2017      H2020   1.085       .  S
C2018      C2021   1.445       .  S
C2021      N2023   1.157   1_556  T
C2022      N2024   1.156       .  T
C2025      C2026   1.399       .  A
C2025      C2030   1.422       .  A
C2026      C2027   1.387       .  A
C2026      H2031   1.085       .  S
C2027      C2028   1.416       .  A
C2027      C2034   1.447       .  S
C2028      C2029   1.397       .  A
C2029      C2030   1.390       .  A
C2029      H2032   1.085       .  S
C2030      C2033   1.446       .  S
C2033      N2035   1.158       .  T
C2034      N2036   1.158       .  T
C2037      C2038   1.410       .  A
C2037      C2042   1.412       .  A
C2038      C2039   1.389       .  A
C2038      H2043   1.085       .  S
C2039      C2040   1.406       .  A
C2039      C2046   1.444       .  S
C2040      C2041   1.406       .  A
C2041      C2042   1.392       .  A
C2041      H2044   1.085       .  S
C2042      C2045   1.442       .  S
C2045      N2047   1.157       .  T
C2046      N2048   1.157       .  T
C2049      C2050   1.396       .  A
C2049      C2054   1.415       .  A
C2050      C2051   1.388       .  A
C2050      H2055   1.085       .  S
C2051      C2052   1.409       .  A
C2051      C2058   1.442       .  S
C2052      C2053   1.393       .  A
C2053      C2054   1.385       .  A
C2053      H2056   1.085       .  S
C2054      C2057   1.446       .  S
C2057      N2059   1.157       .  T
C2058      N2060   1.156       .  T
C2061      C2062   1.398       .  A
C2061      C2066   1.421       .  A
C2062      C2063   1.392       .  A
C2062      H2067   1.078       .  S
C2063      C2064   1.418       .  A
C2063      C2070   1.445       .  S
C2064      C2065   1.397       .  A
C2065      C2066   1.386       .  A
C2065      H2068   1.083       .  S
C2066      C2069   1.444       .  S
C2069      N2071   1.156       .  T
C2070      N2072   1.157       .  T
C2073      C2074   1.400       .  A
C2073      C2078   1.408       .  A
C2074      C2075   1.393       .  A
C2074      H2079   1.085       .  S
C2075      C2076   1.402       .  A
C2075      C2082   1.443       .  S
C2076      C2077   1.398       .  A
C2077      C2078   1.390       .  A
C2077      H2080   1.085       .  S
C2078      C2081   1.446       .  S
C2081      N2083   1.158       .  T
C2082      N2084   1.157   1_556  T
C2085      C2086   1.409       .  A
C2085      C2090   1.413       .  A
C2086      C2087   1.386       .  A
C2086      H2091   1.084       .  S
C2087      C2088   1.409       .  A
C2087      C2094   1.446       .  S
C2088      C2089   1.408       .  A
C2089      C2090   1.394       .  A
C2089      H2092   1.085       .  S
C2090      C2093   1.445       .  S
C2093      N2095   1.158       .  T
C2094      N2096   1.157       .  T
C2097      C2098   1.404       .  A
C2097      C2102   1.415       .  A
C2098      C2099   1.391       .  A
C2098      H2103   1.086   1_556  S
C2099      C2100   1.414       .  A
C2099      C2106   1.444       .  S
C2100      C2101   1.404       .  A
C2101      C2102   1.391       .  A
C2101      H2104   1.085       .  S
C2102      C2105   1.446       .  S
C2105      N2107   1.158       .  T
C2106      N2108   1.157       .  T
C2109      C2110   1.396       .  A
C2109      C2114   1.418       .  A
C2110      C2111   1.393       .  A
C2110      H2115   1.085       .  S
C2111      C2112   1.423       .  A
C2111      C2118   1.445       .  S
C2112      C2113   1.398       .  A
C2113      C2114   1.390       .  A
C2113      H2116   1.085       .  S
C2114      C2117   1.446       .  S
C2117      N2119   1.157       .  T
C2118      N2120   1.157       .  T
C2121      C2122   1.403       .  A
C2121      C2126   1.399       .  A
C2122      C2123   1.391       .  A
C2122      H2127   1.085       .  S
C2123      C2124   1.406       .  A
C2123      C2130   1.445       .  S
C2124      C2125   1.400       .  A
C2125      C2126   1.389       .  A
C2125      H2128   1.077       .  S
C2126      C2129   1.442       .  S
C2129      N2131   1.157       .  T
C2130      N2132   1.157       .  T
C2133      C2134   1.406       .  A
C2133      C2138   1.418       .  A
C2134      C2135   1.388       .  A
C2134      H2139   1.084       .  S
C2135      C2136   1.410       .  A
C2135      C2142   1.443       .  S
C2136      C2137   1.404       .  A
C2137      C2138   1.398       .  A
C2137      H2140   1.085       .  S
C2138      C2141   1.445       .  S
C2141      N2143   1.158       .  T
C2142      N2144   1.156       .  T
C2145      C2146   1.403       .  A
C2145      C2150   1.412       .  A
C2146      C2147   1.394       .  A
C2146      H2151   1.085       .  S
C2147      C2148   1.410       .  A
C2147      C2154   1.444       .  S
C2148      C2149   1.402       .  A
C2149      C2150   1.390       .  A
C2149      H2152   1.085       .  S
C2150      C2153   1.446       .  S
C2153      N2155   1.158       .  T
C2154      N2156   1.157       .  T
C2157      C2158   1.402       .  A
C2157      C2162   1.418       .  A
C2158      C2159   1.393       .  A
C2158      H2163   1.082       .  S
C2159      C2160   1.414       .  A
C2159      C2166   1.445       .  S
C2160      C2161   1.400       .  A
C2161      C2162   1.387       .  A
C2161      H2164   1.085       .  S
C2162      C2165   1.445   1_565  S
C2165      N2167   1.157       .  T
C2166      N2168   1.157       .  T
C2169      C2170   1.403       .  A
C2169      C2174   1.403       .  A
C2170      C2171   1.391       .  A
C2170      H2175   1.085   1_545  S
C2171      C2172   1.403       .  A
C2171      C2178   1.445       .  S
C2172      C2173   1.400       .  A
C2173      C2174   1.388       .  A
C2173      H2176   1.084       .  S
C2174      C2177   1.443       .  S
C2177      N2179   1.157       .  T
C2178      N2180   1.157       .  T
C2181      C2182   1.409       .  A
C2181      C2186   1.415       .  A
C2182      C2183   1.386       .  A
C2182      H2187   1.084       .  S
C2183      C2184   1.404       .  A
C2183      C2190   1.446       .  S
C2184      C2185   1.400       .  A
C2185      C2186   1.391       .  A
C2185      H2188   1.085       .  S
C2186      C2189   1.443       .  S
C2189      N2191   1.157       .  T
C2190      N2192   1.157       .  T
C2193      C2194   1.403       .  A
C2193      C2198   1.406       .  A
C2194      C2195   1.385       .  A
C2194      H2199   1.085       .  S
C2195      C2196   1.406       .  A
C2195      C2202   1.444       .  S
C2196      C2197   1.405       .  A
C2197      C2198   1.390       .  A
C2197      H2200   1.085       .  S
C2198      C2201   1.445       .  S
C2201      N2203   1.157       .  T
C2202      N2204   1.156       .  T
C2205      C2206   1.402       .  A
C2205      C2210   1.400       .  A
C2206      C2207   1.397       .  A
C2206      H2211   1.085       .  S
C2207      C2208   1.408       .  A
C2207      C2214   1.444       .  S
C2208      C2209   1.394       .  A
C2209      C2210   1.390       .  A
C2209      H2212   1.071       .  S
C2210      C2213   1.444   1_565  S
C2213      N2215   1.157       .  T
C2214      N2216   1.157       .  T
C2217      C2218   1.400   1_545  A
C2217      C2222   1.422       .  A
C2218      C2219   1.389       .  A
C2218      H2223   1.086       .  S
C2219      C2220   1.411       .  A
C2219      C2226   1.440       .  S
C2220      C2221   1.398       .  A
C2221      C2222   1.396   1_565  A
C2221      H2224   1.085       .  S
C2222      C2225   1.445       .  S
C2225      N2227   1.158       .  T
C2226      N2228   1.155       .  T
C2229      C2230   1.406       .  A
C2229      C2234   1.399       .  A
C2230      C2231   1.398       .  A
C2230      H2235   1.085       .  S
C2231      C2232   1.406       .  A
C2231      C2238   1.444       .  S
C2232      C2233   1.397       .  A
C2233      C2234   1.384       .  A
C2233      H2236   1.080       .  S
C2234      C2237   1.440       .  S
C2237      N2239   1.155       .  T
C2238      N2240   1.157       .  T
C2241      C2242   1.397       .  A
C2241      C2246   1.409       .  A
C2242      C2243   1.394       .  A
C2242      H2247   1.085       .  S
C2243      C2244   1.414       .  A
C2243      C2250   1.444       .  S
C2244      C2245   1.398       .  A
C2245      C2246   1.384       .  A
C2245      H2248   1.085       .  S
C2246      C2249   1.445       .  S
C2249      N2251   1.156       .  T
C2250      N2252   1.157       .  T
C2253      C2254   1.407       .  A
C2253      C2258   1.405       .  A
C2254      C2255   1.401       .  A
C2254      H2259   1.085       .  S
C2255      C2256   1.411       .  A
C2255      C2262   1.444       .  S
C2256      C2257   1.405       .  A
C2257      C2258   1.382       .  A
C2257      H2260   1.085       .  S
C2258      C2261   1.443       .  S
C2261      N2263   1.156       .  T
C2262      N2264   1.157       .  T
C2265      C2266   1.407       .  A
C2265      C2270   1.408       .  A
C2266      C2267   1.390       .  A
C2266      H2271   1.084       .  S
C2267      C2268   1.405       .  A
C2267      C2274   1.445       .  S
C2268      C2269   1.399       .  A
C2269      C2270   1.388       .  A
C2269      H2272   1.084       .  S
C2270      C2273   1.443       .  S
C2273      N2275   1.156       .  T
C2274      N2276   1.157       .  T
C2277      C2278   1.396       .  A
C2277      C2282   1.408       .  A
C2278      C2279   1.391       .  A
C2278      H2283   1.085       .  S
C2279      C2280   1.413       .  A
C2279      C2286   1.443       .  S
C2280      C2281   1.400       .  A
C2281      C2282   1.390       .  A
C2281      H2284   1.085       .  S
C2282      C2285   1.445       .  S
C2285      N2287   1.157       .  T
C2286      N2288   1.157       .  T
C2289      C2290   1.405       .  A
C2289      C2294   1.414       .  A
C2290      C2291   1.392       .  A
C2290      H2295   1.085   1_655  S
C2291      C2292   1.414       .  A
C2291      C2298   1.445       .  S
C2292      C2293   1.404       .  A
C2293      C2294   1.389       .  A
C2293      H2296   1.085       .  S
C2294      C2297   1.445   1_565  S
C2297      N2299   1.157       .  T
C2298      N2300   1.157       .  T
C2301      C2302   1.398       .  A
C2301      C2306   1.402       .  A
C2302      C2303   1.393       .  A
C2302      H2307   1.085       .  S
C2303      C2304   1.411       .  A
C2303      C2310   1.445       .  S
C2304      C2305   1.401       .  A
C2305      C2306   1.389       .  A
C2305      H2308   1.084       .  S
C2306      C2309   1.442   1_565  S
C2309      N2311   1.156       .  T
C2310      N2312   1.157       .  T
C2313      C2314   1.405       .  A
C2313      C2318   1.414       .  A
C2314      C2315   1.392       .  A
C2314      H2319   1.085       .  S
C2315      C2316   1.413       .  A
C2315      C2322   1.445       .  S
C2316      C2317   1.404       .  A
C2317      C2318   1.392       .  A
C2317      H2320   1.084       .  S
C2318      C2321   1.445   1_655  S
C2321      N2323   1.157       .  T
C2322      N2324   1.157       .  T
C2325      C2326   1.407       .  A
C2325      C2330   1.399       .  A
C2326      C2327   1.388       .  A
C2326      H2331   1.085   1_655  S
C2327      C2328   1.400       .  A
C2327      C2334   1.446       .  S
C2328      C2329   1.401       .  A
C2329      C2330   1.389       .  A
C2329      H2332   1.080       .  S
C2330      C2333   1.442   1_556  S
C2333      N2335   1.157   1_655  T
C2334      N2336   1.157       .  T
C2337      C2338   1.398       .  A
C2337      C2342   1.425       .  A
C2338      C2339   1.393       .  A
C2338      H2343   1.085   1_655  S
C2339      C2340   1.420       .  A
C2339      C2346   1.445       .  S
C2340      C2341   1.399       .  A
C2341      C2342   1.401       .  A
C2341      H2344   1.085       .  S
C2342      C2345   1.446       .  S
C2345      N2347   1.158       .  T
C2346      N2348   1.157       .  T
C2349      C2350   1.406       .  A
C2349      C2354   1.422       .  A
C2350      C2351   1.402       .  A
C2350      H2355   1.084   1_556  S
C2351      C2352   1.414       .  A
C2351      C2358   1.443       .  S
C2352      C2353   1.398       .  A
C2353      C2354   1.386       .  A
C2353      H2356   1.086       .  S
C2354      C2357   1.448       .  S
C2357      N2359   1.158       .  T
C2358      N2360   1.157   1_556  T
C2361      C2362   1.409       .  A
C2361      C2366   1.407       .  A
C2362      C2363   1.392       .  A
C2362      H2367   1.084   1_556  S
C2363      C2364   1.409       .  A
C2363      C2370   1.445       .  S
C2364      C2365   1.406       .  A
C2365      C2366   1.395       .  A
C2365      H2368   1.079       .  S
C2366      C2369   1.444       .  S
C2369      N2371   1.157       .  T
C2370      N2372   1.157       .  T
C2373      C2374   1.409       .  A
C2373      C2378   1.415       .  A
C2374      C2375   1.399       .  A
C2374      H2379   1.084   1_565  S
C2375      C2376   1.412       .  A
C2375      C2382   1.445       .  S
C2376      C2377   1.401       .  A
C2377      C2378   1.393       .  A
C2377      H2380   1.082       .  S
C2378      C2381   1.444       .  S
C2381      N2383   1.157   1_556  T
C2382      N2384   1.158   1_565  T
C2385      C2386   1.408       .  A
C2385      C2390   1.409       .  A
C2386      C2387   1.391       .  A
C2386      H2391   1.084       .  S
C2387      C2388   1.410       .  A
C2387      C2394   1.445       .  S
C2388      C2389   1.409       .  A
C2389      C2390   1.396       .  A
C2389      H2392   1.085       .  S
C2390      C2393   1.442       .  S
C2393      N2395   1.157       .  T
C2394      N2396   1.157       .  T
C2397      C2398   1.401       .  A
C2397      C2402   1.411       .  A
C2398      C2399   1.390       .  A
C2398      H2403   1.085       .  S
C2399      C2400   1.413       .  A
C2399      C2406   1.444       .  S
C2400      C2401   1.401       .  A
C2401      C2402   1.391       .  A
C2401      H2404   1.085       .  S
C2402      C2405   1.444       .  S
C2405      N2407   1.157       .  T
C2406      N2408   1.156       .  T
C2409      C2410   1.401       .  A
C2409      C2414   1.407       .  A
C2410      C2411   1.396       .  A
C2410      H2415   1.084       .  S
C2411      C2412   1.410       .  A
C2411      C2418   1.442       .  S
C2412      C2413   1.400       .  A
C2413      C2414   1.386       .  A
C2413      H2416   1.082       .  S
C2414      C2417   1.442       .  S
C2417      N2419   1.156       .  T
C2418      N2420   1.156       .  T
C2421      C2422   1.403       .  A
C2421      C2426   1.415       .  A
C2422      C2423   1.390       .  A
C2422      H2427   1.085       .  S
C2423      C2424   1.406       .  A
C2423      C2430   1.444       .  S
C2424      C2425   1.398       .  A
C2425      C2426   1.394       .  A
C2425      H2428   1.085       .  S
C2426      C2429   1.445       .  S
C2429      N2431   1.157       .  T
C2430      N2432   1.157       .  T
