geometry optimzed in LAMMPS
_audit_creation_date              2020-11-30 
_audit_creation_method            'lammps2cif' 
_symmetry_space_group_name_H-M    'P1' 
_symmetry_Int_Tables_number       1 
_symmetry_cell_setting            triclinic 
loop_ 
_symmetry_equiv_pos_as_xyz 
  x,y,z 
_cell_length_a                    29.95641076 
_cell_length_b                    30.199160231103043 
_cell_length_c                    33.7616649494097 
_cell_angle_alpha                 90.16964776958838 
_cell_angle_beta                  90.03232066091081 
_cell_angle_gamma                 90.0946328582193 
loop_ 
_atom_site_label 
_atom_site_type_symbol 
_atom_site_fract_x 
_atom_site_fract_y 
_atom_site_fract_z 
_atom_site_charge 
N1          N  0.49767578  0.43258769  0.75847135    -0.35500
N2          N  0.56684350  0.50038405  0.76095275    -0.56100
N3          N  0.49604374  0.56645052  0.75647344    -0.35500
N4          N  0.42690290  0.49885476  0.75918822    -0.56100
C5          C  0.53428995  0.40716615  0.76367812     0.28100
C6          C  0.46155892  0.40629444  0.76331279     0.28100
C7          C  0.53197380  0.59257313  0.76300636     0.28100
C8          C  0.45930093  0.59175838  0.76148458     0.28100
C9          C  0.59235684  0.46483799  0.75205146     0.36700
C10         C  0.59149292  0.53647534  0.75187712     0.36700
C11         C  0.40225998  0.46250172  0.75077215     0.36700
C12         C  0.40153368  0.53411400  0.74928636     0.36700
C13         C  0.52131349  0.36422784  0.77257423    -0.20800
C14         C  0.47537901  0.36366726  0.77231339    -0.20800
C15         C  0.51791817  0.63493402  0.77284985    -0.20800
C16         C  0.47196193  0.63441843  0.77185963    -0.20800
C17         C  0.63403425  0.47843213  0.73892953    -0.21800
C18         C  0.63350589  0.52383028  0.73886205    -0.21800
C19         C  0.36036125  0.47479619  0.73719155    -0.21800
C20         C  0.35993265  0.52017684  0.73619638    -0.21800
C21         C  0.57848688  0.42028523  0.75518142    -0.17200
C22         C  0.41711558  0.41835961  0.75461006    -0.17200
C23         C  0.41538947  0.57870209  0.75185409    -0.17200
C24         C  0.57653035  0.58066242  0.75481117    -0.17200
H25         H  0.54273629  0.33586872  0.77715678     0.15700
H26         H  0.45453682  0.33477451  0.77664976     0.15700
H27         H  0.53867690  0.66360072  0.77865040     0.15700
H28         H  0.45033833  0.66257091  0.77682032     0.15700
H29         H  0.66165891  0.45783314  0.72961152     0.14000
H30         H  0.66065379  0.54503638  0.72948632     0.14000
H31         H  0.33321709  0.45333808  0.72813323     0.14000
H32         H  0.33238462  0.54051493  0.72634083     0.14000
H33         H  0.49741880  0.46377601  0.74585716     0.27300
H34         H  0.49671278  0.53573244  0.74270638     0.27300
N35         N  0.49630744  0.56487804  0.94754834    -0.35500
N36         N  0.42593509  0.49807876  0.94664108    -0.56100
N37         N  0.49538609  0.43061623  0.95017125    -0.35500
N38         N  0.56556993  0.49737040  0.94636664    -0.56100
C39         C  0.46005121  0.59090401  0.94288168     0.28100
C40         C  0.53278428  0.59043412  0.94171980     0.28100
C41         C  0.45889681  0.40487933  0.94501044     0.28100
C42         C  0.53161412  0.40458565  0.94524099     0.28100
C43         C  0.40110238  0.53419204  0.95531955     0.36700
C44         C  0.40054064  0.46246517  0.95573339     0.36700
C45         C  0.59123831  0.53329670  0.95373542     0.36700
C46         C  0.59064656  0.46170779  0.95557130     0.36700
C47         C  0.47360078  0.63352302  0.93341455    -0.20800
C48         C  0.51953949  0.63320617  0.93260839    -0.20800
C49         C  0.47208370  0.36191469  0.93630650    -0.20800
C50         C  0.51803887  0.36173621  0.93645951    -0.20800
C51         C  0.35911047  0.52141778  0.96831004    -0.21800
C52         C  0.35873594  0.47600118  0.96853251    -0.21800
C53         C  0.63339353  0.52032439  0.96611191    -0.21800
C54         C  0.63300545  0.47496198  0.96730679    -0.21800
C55         C  0.41578222  0.57854622  0.95204163    -0.17200
C56         C  0.57719471  0.57765543  0.94970019    -0.17200
C57         C  0.57603451  0.41733368  0.95331322    -0.17200
C58         C  0.41459425  0.41791323  0.95308104    -0.17200
H59         H  0.45260083  0.66223009  0.92903454     0.15700
H60         H  0.54081224  0.66163689  0.92753835     0.15700
H61         H  0.45079237  0.33335626  0.93173064     0.15700
H62         H  0.53906963  0.33304282  0.93197902     0.15700
H63         H  0.33181603  0.54257893  0.97737390     0.14000
H64         H  0.33111654  0.45536230  0.97784114     0.14000
H65         H  0.66135278  0.54131947  0.97400559     0.14000
H66         H  0.66062524  0.45418536  0.97623297     0.14000
H67         H  0.49624377  0.53385167  0.96047692     0.27300
H68         H  0.49553179  0.46190646  0.96280366     0.27300
N69         N  0.49748954  0.13743155  0.41253583    -0.35500
N70         N  0.42885862  0.13720116  0.35158440    -0.56100
N71         N  0.49814177  0.13240621  0.28996120    -0.35500
N72         N  0.56680588  0.13720407  0.35106595    -0.56100
C73         C  0.46098317  0.14622249  0.43494136     0.28100
C74         C  0.53390079  0.14769609  0.43457522     0.28100
C75         C  0.46173600  0.13997409  0.26714252     0.28100
C76         C  0.53470321  0.13874461  0.26697654     0.28100
C77         C  0.40186414  0.13473416  0.38367409     0.36700
C78         C  0.40222898  0.13403452  0.31932820     0.36700
C79         C  0.59330293  0.13525931  0.38346754     0.36700
C80         C  0.59371330  0.13208613  0.31918335     0.36700
C81         C  0.47444738  0.16128727  0.47192817    -0.20800
C82         C  0.52029084  0.16228200  0.47168734    -0.20800
C83         C  0.47538907  0.14958011  0.22881014    -0.20800
C84         C  0.52124206  0.14884472  0.22871716    -0.20800
C85         C  0.35783304  0.13007381  0.37170866    -0.21800
C86         C  0.35804334  0.12975657  0.33103139    -0.21800
C87         C  0.63731790  0.12887213  0.37209538    -0.21800
C88         C  0.63758028  0.12693725  0.33143390    -0.21800
C89         C  0.41583106  0.14040603  0.42344301    -0.17200
C90         C  0.57912107  0.14316116  0.42283498    -0.17200
C91         C  0.57990594  0.13548289  0.27918608    -0.17200
C92         C  0.41648495  0.13844515  0.27954555    -0.17200
H93         H  0.45344216  0.17096570  0.49654034     0.15700
H94         H  0.54118872  0.17271110  0.49616818     0.15700
H95         H  0.45452801  0.15687328  0.20347712     0.15700
H96         H  0.54223247  0.15554203  0.20333704     0.15700
H97         H  0.32847751  0.12825370  0.39031276     0.14000
H98         H  0.32886303  0.12742514  0.31221063     0.14000
H99         H  0.66637480  0.12683442  0.39107287     0.14000
H100        H  0.66685505  0.12305782  0.31297717     0.14000
H101        H  0.49767862  0.12153538  0.38527980     0.27300
H102        H  0.49792012  0.12072973  0.31876519     0.27300
N103        N  0.85542358  0.49710398  0.29260251    -0.35500
N104        N  0.85339119  0.56611251  0.35244155    -0.56100
N105        N  0.85613158  0.49851014  0.41512982    -0.35500
N106        N  0.85359443  0.42953478  0.35535713    -0.56100
C107        C  0.84698612  0.53288436  0.26955498     0.28100
C108        C  0.84484198  0.46056914  0.27114623     0.28100
C109        C  0.84678955  0.53502898  0.43689981     0.28100
C110        C  0.84877734  0.46279429  0.43849366     0.28100
C111        C  0.85810845  0.59221411  0.32016527     0.36700
C112        C  0.85707443  0.59287225  0.38445791     0.36700
C113        C  0.85617518  0.40266569  0.32332316     0.36700
C114        C  0.85885210  0.40351748  0.38762903     0.36700
C115        C  0.83214817  0.51880478  0.23269478    -0.20800
C116        C  0.83068737  0.47335112  0.23371789    -0.20800
C117        C  0.83432008  0.52234910  0.47484304    -0.20800
C118        C  0.83570977  0.47689884  0.47587123    -0.20800
C119        C  0.86466780  0.63581061  0.33176028    -0.21800
C120        C  0.86396024  0.63623865  0.37244180    -0.21800
C121        C  0.86301666  0.35931636  0.33533311    -0.21800
C122        C  0.86484138  0.35987720  0.37600408    -0.21800
C123        C  0.85261212  0.57790174  0.28052423    -0.17200
C124        C  0.84863314  0.41592532  0.28369146    -0.17200
C125        C  0.85412057  0.41785318  0.42735540    -0.17200
C126        C  0.85075702  0.57954312  0.42420113    -0.17200
H127        H  0.82274015  0.53915250  0.20771595     0.15700
H128        H  0.82009253  0.45215361  0.20956680     0.15700
H129        H  0.82517450  0.54360590  0.49939080     0.15700
H130        H  0.82768560  0.45659571  0.50126771     0.15700
H131        H  0.86858759  0.66446433  0.31288759     0.14000
H132        H  0.86733988  0.66530494  0.39104821     0.14000
H133        H  0.86554303  0.33016206  0.31675224     0.14000
H134        H  0.86892737  0.33125515  0.39487829     0.14000
H135        H  0.87102807  0.49737940  0.32003809     0.27300
H136        H  0.87046277  0.49825670  0.38719335     0.27300
N137        N  0.49634299  0.86144041  0.29131812    -0.35500
N138        N  0.56629702  0.85627601  0.35223739    -0.56100
N139        N  0.49834462  0.85788115  0.41351978    -0.35500
N140        N  0.42841261  0.86049432  0.35264087    -0.56100
C141        C  0.53224006  0.85159024  0.26851849     0.28100
C142        C  0.45930078  0.85537685  0.26875978     0.28100
C143        C  0.53492145  0.84865083  0.43565704     0.28100
C144        C  0.46197212  0.84807404  0.43566028     0.28100
C145        C  0.59242847  0.85987277  0.31973809     0.36700
C146        C  0.59344093  0.86046503  0.38412500     0.36700
C147        C  0.40122286  0.86606846  0.32104579     0.36700
C148        C  0.40232457  0.86262416  0.38522519     0.36700
C149        C  0.51779494  0.84025434  0.23073727    -0.20800
C150        C  0.47197896  0.84276161  0.23086832    -0.20800
C151        C  0.52157220  0.83361918  0.47260467    -0.20800
C152        C  0.47568075  0.83310864  0.47256741    -0.20800
C153        C  0.63650555  0.86625570  0.33106210    -0.21800
C154        C  0.63711967  0.86678027  0.37179694    -0.21800
C155        C  0.35759198  0.87200525  0.33366240    -0.21800
C156        C  0.35827528  0.86980355  0.37427387    -0.21800
C157        C  0.57775133  0.85391427  0.28017531    -0.17200
C158        C  0.41435055  0.86112722  0.28104909    -0.17200
C159        C  0.41675961  0.85376784  0.42428160    -0.17200
C160        C  0.57999195  0.85450900  0.42396987    -0.17200
H161        H  0.53812312  0.83111524  0.20552451     0.15700
H162        H  0.45046365  0.83574124  0.20585328     0.15700
H163        H  0.54266937  0.82384920  0.49709593     0.15700
H164        H  0.45481147  0.82301035  0.49710589     0.15700
H165        H  0.66533555  0.86947079  0.31196600     0.14000
H166        H  0.66651518  0.87026435  0.39021056     0.14000
H167        H  0.32811903  0.87603927  0.31547218     0.14000
H168        H  0.32940810  0.87188376  0.39345873     0.14000
H169        H  0.49734201  0.87500121  0.31954087     0.27300
H170        H  0.49818255  0.87395484  0.38641728     0.27300
N171        N  0.13658946  0.49959205  0.41393508    -0.35500
N172        N  0.14089539  0.43020507  0.35277648    -0.56100
N173        N  0.13694797  0.49708294  0.29113721    -0.35500
N174        N  0.13678161  0.56655035  0.35222221    -0.56100
C175        C  0.14808883  0.46419100  0.43630187     0.28100
C176        C  0.14363850  0.53647861  0.43612375     0.28100
C177        C  0.14588895  0.46064945  0.26895190     0.28100
C178        C  0.14640372  0.53305525  0.26872854     0.28100
C179        C  0.13824550  0.40439953  0.38538185     0.36700
C180        C  0.13598323  0.40301785  0.32109199     0.36700
C181        C  0.13079692  0.59349646  0.38391267     0.36700
C182        C  0.13330092  0.59225493  0.31960511     0.36700
C183        C  0.16149663  0.47876766  0.47349749    -0.20800
C184        C  0.15855638  0.52422413  0.47342496    -0.20800
C185        C  0.16004621  0.47367104  0.23163511    -0.20800
C186        C  0.16050756  0.51921715  0.23152878    -0.20800
C187        C  0.13169943  0.36059524  0.37432393    -0.21800
C188        C  0.13016442  0.35973653  0.33366704    -0.21800
C189        C  0.12329593  0.63649255  0.37131602    -0.21800
C190        C  0.12503373  0.63573947  0.33066540    -0.21800
C191        C  0.14551364  0.41902739  0.42473564    -0.17200
C192        C  0.13668574  0.58087344  0.42392604    -0.17200
C193        C  0.14143082  0.57801440  0.28027005    -0.17200
C194        C  0.14096413  0.41598537  0.28108704    -0.17200
H195        H  0.17242541  0.45875872  0.49820631     0.15700
H196        H  0.16697284  0.54578968  0.49799233     0.15700
H197        H  0.16948668  0.45257935  0.20706079     0.15700
H198        H  0.17021555  0.53977575  0.20676971     0.15700
H199        H  0.12914280  0.33207338  0.39353468     0.14000
H200        H  0.12635363  0.33042650  0.31543875     0.14000
H201        H  0.11839028  0.66562534  0.38954076     0.14000
H202        H  0.12157429  0.66417346  0.31147148     0.14000
H203        H  0.12129407  0.49839961  0.38636446     0.27300
H204        H  0.12162026  0.49739135  0.31868904     0.27300
Zr205      Zr  0.22908893  0.22963591  0.17145116     2.17500
O206        O  0.24170990  0.23244898  0.24291828    -0.50200
O207        O  0.17169554  0.17701244  0.19227499    -0.73400
O208        O  0.19062377  0.29084790  0.20480926    -0.80200
O209        O  0.33458829  0.15766195  0.15814190    -0.82000
O210        O  0.15560682  0.33329806  0.15883117    -0.77600
O211        O  0.29192013  0.19323497  0.20400793    -0.89200
O212        O  0.13505364  0.14812495  0.13915682    -0.75200
O213        O  0.16743941  0.23532620  0.12722098    -0.84700
O214        O  0.23371109  0.16753669  0.12785896    -0.84400
O215        O  0.24030969  0.29950527  0.13860097    -0.71100
O216        O  0.29952014  0.23609211  0.13805804    -0.83200
Zr217      Zr  0.25061381  0.24948056  0.01514860     2.26400
Zr218      Zr  0.17806689  0.30464885  0.09419531     2.06300
Zr219      Zr  0.30323111  0.17456193  0.09366903     2.10000
Zr220      Zr  0.17343978  0.17420264  0.08233426     1.78800
O221        O  0.38417619  0.17709840  0.08741870    -0.92000
O222        O  0.09471362  0.18456954  0.06687025    -0.39900
O223        O  0.24239837  0.17955394  0.04782459    -0.76500
O224        O  0.18035900  0.24288165  0.04915282    -0.95200
O225        O  0.24728802  0.31146210  0.05907488    -0.88500
O226        O  0.31307069  0.24282858  0.05863287    -0.91300
C227        C  0.14166987  0.15252194  0.17611619     1.02400
C228        C  0.32520915  0.16900459  0.19379179     1.15400
C229        C  0.16611086  0.32377055  0.19466973     1.06100
O230        O  0.09688278  0.30648601  0.09722491    -0.93500
O231        O  0.15059175  0.32683809  0.02964194    -0.89200
O232        O  0.19049626  0.28987027  0.98255085    -0.82400
C233        C  0.15907446  0.31596429  0.99366636     1.12800
O234        O  0.34204389  0.33145493  0.16442723    -0.95500
Zr235      Zr  0.30901100  0.30410778  0.10296947     1.88900
O236        O  0.30572087  0.30217983  0.99079300    -0.72100
O237        O  0.18554469  0.38494750  0.09172523    -0.51400
O238        O  0.29756150  0.38349752  0.11142683    -0.96000
O239        O  0.38912390  0.29052503  0.10680664    -0.53300
O240        O  0.33820919  0.33676979  0.04328038    -0.72600
C241        C  0.33261530  0.33044073  0.00616765     0.99700
O242        O  0.23571639  0.24230763  0.94427561    -0.61400
O243        O  0.30046207  0.09408862  0.09957911    -0.56200
O244        O  0.28723077  0.18628060  0.98332020    -0.92900
O245        O  0.32008629  0.14270759  0.02981151    -0.91300
O246        O  0.18542316  0.09446797  0.08311942    -0.91700
O247        O  0.14907248  0.14003336  0.02055480    -0.90500
C248        C  0.31033354  0.15260991  0.99401762     1.18600
H249        H  0.23218477  0.14011827  0.14242105     0.34500
H250        H  0.15517855  0.24296431  0.03130886     0.45400
H251        H  0.34076282  0.24259148  0.04395363     0.38900
H252        H  0.24122098  0.32408813  0.15689975     0.35400
H253        H  0.08033723  0.15600175  0.07357962     0.27200
H254        H  0.15539883  0.39629808  0.09808265     0.33100
H255        H  0.32377759  0.39768172  0.09886944     0.39000
H256        H  0.15516030  0.08150310  0.08550793     0.33500
H257        H  0.33212637  0.08476131  0.10031581     0.32300
H258        H  0.39358625  0.14569007  0.08724585     0.34000
H259        H  0.39885399  0.28499925  0.07921630     0.33000
H260        H  0.16499292  0.15668541  0.99964614     0.37000
H261        H  0.26519587  0.24162369  0.93102203     0.29700
H262        H  0.21177692  0.23223344  0.25538078     0.34000
H263        H  0.36528036  0.35298686  0.15638345     0.36800
H264        H  0.28928060  0.08808136  0.12661266     0.29400
H265        H  0.22292431  0.21233586  0.94037904     0.42300
H266        H  0.08877749  0.28365401  0.11694992     0.32300
H267        H  0.08380258  0.20545867  0.08730356     0.40000
H268        H  0.39173538  0.26141327  0.11998907     0.31800
H269        H  0.20387029  0.39276294  0.11516103     0.31900
H270        H  0.25408790  0.26223519  0.24856643     0.32100
Zr271      Zr  0.25137923  0.74602338  0.01546976     2.17500
O272        O  0.23744986  0.75175843  0.94438192    -0.50200
O273        O  0.30635750  0.69354535  0.99041596    -0.73400
O274        O  0.29012985  0.80782212  0.98398936    -0.80200
O275        O  0.14834356  0.67209878  0.02886221    -0.82000
O276        O  0.32426659  0.84990295  0.03122349    -0.77600
O277        O  0.18854020  0.70984367  0.98268055    -0.89200
O278        O  0.34119612  0.66152079  0.04274187    -0.75200
O279        O  0.31330750  0.75328846  0.05955297    -0.84700
O280        O  0.24795730  0.68346176  0.05845786    -0.84400
O281        O  0.24052539  0.81542150  0.04924880    -0.71100
O282        O  0.18089845  0.75005582  0.04888118    -0.83200
Zr283      Zr  0.23025195  0.76543299  0.17209617     2.26400
Zr284      Zr  0.30183168  0.82155232  0.09500321     2.06300
Zr285      Zr  0.17887559  0.68901833  0.09378370     2.10000
Zr286      Zr  0.30914394  0.69117682  0.10275974     1.78800
O287        O  0.09799159  0.68397156  0.09963023    -0.92000
O288        O  0.38860188  0.70572156  0.11072763    -0.39900
O289        O  0.24041353  0.69608254  0.13838579    -0.76500
O290        O  0.30091439  0.75893836  0.13864262    -0.95200
O291        O  0.23191301  0.82737909  0.12871806    -0.88500
O292        O  0.16826075  0.75745097  0.12823856    -0.91300
C293        C  0.33475165  0.66685419  0.00563590     1.02400
C294        C  0.15660654  0.68404876  0.99318190     1.15400
C295        C  0.31443187  0.84051121  0.99526585     1.06100
O296        O  0.38282654  0.82761485  0.09255735    -0.93500
O297        O  0.33077640  0.84428903  0.15942601    -0.89200
O298        O  0.28975528  0.80746972  0.20549065    -0.82400
C299        C  0.32174233  0.83347172  0.19527325     1.12800
O300        O  0.14016516  0.84505115  0.02119032    -0.95500
Zr301      Zr  0.17141599  0.81813717  0.08331558     1.88900
O302        O  0.17494981  0.81971846  0.19338882    -0.72100
O303        O  0.29121951  0.90146962  0.09890916    -0.51400
O304        O  0.18478579  0.89728660  0.07563376    -0.96000
O305        O  0.09151013  0.80397673  0.07753123    -0.53300
O306        O  0.13877974  0.84992400  0.14074232    -0.72600
C307        C  0.14609625  0.84561513  0.17759939     0.99700
O308        O  0.23511938  0.75045668  0.24301077    -0.61400
O309        O  0.18785798  0.60896897  0.08957420    -0.56200
O310        O  0.19458136  0.70241556  0.20456365    -0.92900
O311        O  0.16012907  0.65912847  0.15843177    -0.91300
O312        O  0.29803977  0.61155398  0.10914535    -0.91700
O313        O  0.34080202  0.65906293  0.16258599    -0.90500
C314        C  0.17086379  0.66884619  0.19419724     1.18600
H315        H  0.24938146  0.65603611  0.04373762     0.34500
H316        H  0.32580009  0.75947071  0.15674901     0.45400
H317        H  0.14049457  0.75686882  0.14277595     0.38900
H318        H  0.23925120  0.84027248  0.03137077     0.35400
H319        H  0.40329242  0.67735613  0.10395198     0.27200
H320        H  0.32167652  0.91400428  0.09657231     0.33100
H321        H  0.15770367  0.91186382  0.08619590     0.39000
H322        H  0.32597139  0.59812460  0.09908002     0.33500
H323        H  0.15859355  0.59676983  0.09773445     0.32300
H324        H  0.09116543  0.65215269  0.09578044     0.34000
H325        H  0.08210290  0.79300292  0.10383782     0.33000
H326        H  0.31928109  0.66674615  0.18375743     0.37000
H327        H  0.26632557  0.74117921  0.24797541     0.29700
H328        H  0.26712226  0.75135215  0.93147341     0.34000
H329        H  0.11897133  0.86876666  0.02868491     0.36800
H330        H  0.18979755  0.60221757  0.06091969     0.29400
H331        H  0.23203751  0.77951279  0.25638749     0.42300
H332        H  0.39373838  0.80395679  0.11031220     0.32300
H333        H  0.39627719  0.72560904  0.08848542     0.40000
H334        H  0.08929615  0.77772185  0.05999361     0.31800
H335        H  0.27637834  0.90957111  0.07375928     0.31900
H336        H  0.22571748  0.78199585  0.93995977     0.32100
Zr337      Zr  0.22796209  0.76663683  0.53284311     2.17500
O338        O  0.23813425  0.76602132  0.46104478    -0.50200
O339        O  0.17384951  0.82233310  0.51252034    -0.73400
O340        O  0.18693386  0.70654319  0.49957409    -0.80200
O341        O  0.33454282  0.83702108  0.54551071    -0.82000
O342        O  0.15165635  0.66427727  0.54567482    -0.77600
O343        O  0.29206241  0.80037826  0.50003607    -0.89200
O344        O  0.14231803  0.85608674  0.56583950    -0.75200
O345        O  0.16647417  0.76246277  0.57735211    -0.84700
O346        O  0.23514610  0.82827943  0.57680802    -0.84400
O347        O  0.23704373  0.69629984  0.56535613    -0.71100
O348        O  0.29864230  0.75815672  0.56562060    -0.83200
Zr349      Zr  0.25039090  0.74525795  0.68876804     2.26400
Zr350      Zr  0.17502856  0.69272273  0.61019353     2.06300
Zr351      Zr  0.30478181  0.81920993  0.61036569     2.10000
Zr352      Zr  0.17493835  0.82302472  0.62254097     1.78800
O353        O  0.38543213  0.81143903  0.61623353    -0.92000
O354        O  0.09455822  0.81535568  0.63098714    -0.39900
O355        O  0.24409256  0.81546066  0.65626214    -0.76500
O356        O  0.18008071  0.75400167  0.65536403    -0.95200
O357        O  0.24442358  0.68383799  0.64461803    -0.88500
O358        O  0.31268215  0.75058055  0.64500353    -0.91300
C359        C  0.14744913  0.85031821  0.52886024     1.02400
C360        C  0.32524175  0.82496540  0.51002178     1.15400
C361        C  0.16193300  0.67385032  0.50977612     1.06100
O362        O  0.09383432  0.69446358  0.60748724    -0.93500
O363        O  0.14710959  0.67144642  0.67496334    -0.89200
O364        O  0.19099733  0.70425260  0.72183974    -0.82400
C365        C  0.15776684  0.68022198  0.71097154     1.12800
O366        O  0.33404330  0.66101537  0.53760917    -0.95500
Zr367      Zr  0.30600634  0.68968415  0.60046913     1.88900
O368        O  0.30536147  0.69224833  0.71273550    -0.72100
O369        O  0.18089647  0.61244751  0.61461212    -0.51400
O370        O  0.29066003  0.61051198  0.59684224    -0.96000
O371        O  0.38653081  0.69852870  0.59304500    -0.53300
O372        O  0.33811156  0.65878770  0.65986643    -0.72600
C373        C  0.33275079  0.66473582  0.69707650     0.99700
O374        O  0.23269144  0.75381439  0.75896063    -0.61400
O375        O  0.30752022  0.89977444  0.60560667    -0.56200
O376        O  0.28908052  0.80693832  0.72092908    -0.92900
O377        O  0.32153065  0.85094228  0.67446086    -0.91300
O378        O  0.18919010  0.90211765  0.62967190    -0.91700
O379        O  0.14921151  0.84982763  0.68661352    -0.90500
C380        C  0.31213900  0.84070030  0.71028182     1.18600
H381        H  0.23466145  0.85596956  0.56258071     0.34500
H382        H  0.15533087  0.75430607  0.67366011     0.45400
H383        H  0.34049218  0.75002539  0.65950900     0.38900
H384        H  0.23705971  0.67177603  0.54697855     0.35400
H385        H  0.08273025  0.84582212  0.62846312     0.27200
H386        H  0.15037836  0.60142070  0.60911128     0.33100
H387        H  0.31805576  0.59605176  0.60685780     0.39000
H388        H  0.16004334  0.91642344  0.62452169     0.33500
H389        H  0.33962332  0.90692862  0.60270978     0.32300
H390        H  0.39639218  0.84164645  0.62231632     0.34000
H391        H  0.39898909  0.66858001  0.59743022     0.33000
H392        H  0.17017433  0.83664499  0.70594496     0.37000
H393        H  0.26157137  0.75286673  0.77322019     0.29700
H394        H  0.20780241  0.76824664  0.44952305     0.34000
H395        H  0.35107345  0.63394576  0.54418911     0.36800
H396        H  0.29431310  0.90708755  0.57956093     0.29400
H397        H  0.22171899  0.78453377  0.76223053     0.42300
H398        H  0.08524006  0.71772073  0.62674436     0.32300
H399        H  0.08421616  0.79998774  0.60671188     0.40000
H400        H  0.39621965  0.71570933  0.61653287     0.31800
H401        H  0.19848055  0.60360020  0.59106375     0.31900
H402        H  0.24856210  0.73587841  0.45413571     0.32100
Zr403      Zr  0.25236137  0.25079538  0.69129244     2.17500
O404        O  0.23576642  0.24446645  0.76189818    -0.50200
O405        O  0.30649006  0.30412783  0.71672120    -0.73400
O406        O  0.29142323  0.18945187  0.72356339    -0.80200
O407        O  0.14918017  0.32524028  0.67516486    -0.82000
O408        O  0.32486142  0.14656612  0.67657566    -0.77600
O409        O  0.18799790  0.28699149  0.72192982    -0.89200
O410        O  0.34392267  0.33442091  0.66492628    -0.75200
O411        O  0.31510567  0.24359819  0.64817713    -0.84700
O412        O  0.25002529  0.31323895  0.64817972    -0.84400
O413        O  0.24221222  0.18144869  0.65711366    -0.71100
O414        O  0.18281086  0.24696224  0.65644292    -0.83200
Zr415      Zr  0.23338921  0.23153726  0.53436268     2.26400
Zr416      Zr  0.30444099  0.17553934  0.61224891     2.06300
Zr417      Zr  0.18170880  0.30799376  0.61145126     2.10000
Zr418      Zr  0.31194962  0.30550810  0.60478469     1.78800
O419        O  0.10079126  0.31040232  0.60509332    -0.92000
O420        O  0.39187884  0.29178024  0.59903653    -0.39900
O421        O  0.24395869  0.30097546  0.56777578    -0.76500
O422        O  0.30378633  0.23809556  0.56854706    -0.95200
O423        O  0.23478393  0.16971790  0.57789690    -0.88500
O424        O  0.17084338  0.23941439  0.57728374    -0.91300
C425        C  0.33605671  0.32988928  0.70186390     1.02400
C426        C  0.15624585  0.31270466  0.71083749     1.15400
C427        C  0.31516890  0.15626670  0.71252625     1.06100
O428        O  0.38550125  0.17111801  0.61624721    -0.93500
O429        O  0.33434839  0.15387513  0.54755869    -0.89200
O430        O  0.29324752  0.19058108  0.50152372    -0.82400
C431        C  0.32536856  0.16496302  0.51168134     1.12800
O432        O  0.13956043  0.15495759  0.68447649    -0.95500
Zr433      Zr  0.17339208  0.17867987  0.62231111     1.88900
O434        O  0.17853298  0.17684499  0.51255950    -0.72100
O435        O  0.29536691  0.09551943  0.60788902    -0.51400
O436        O  0.18435867  0.09956300  0.63260024    -0.96000
O437        O  0.09316811  0.19263428  0.62344424    -0.53300
O438        O  0.14438383  0.14366093  0.56477831    -0.72600
C439        C  0.15104912  0.14920787  0.52797155     0.99700
O440        O  0.23763453  0.24408551  0.46303289    -0.61400
O441        O  0.19011697  0.38820019  0.61548872    -0.56200
O442        O  0.19883881  0.29449946  0.50095772    -0.92900
O443        O  0.16473896  0.33844921  0.54662679    -0.91300
O444        O  0.29831024  0.38474294  0.59968554    -0.91700
O445        O  0.34657520  0.33721521  0.54610217    -0.90500
C446        C  0.17565166  0.32846849  0.51098455     1.18600
H447        H  0.25126831  0.34066555  0.66289805     0.34500
H448        H  0.32892573  0.23792411  0.55074789     0.45400
H449        H  0.14335317  0.23995015  0.56235201     0.38900
H450        H  0.24071706  0.15666355  0.67503524     0.35400
H451        H  0.40618551  0.32086403  0.60394417     0.27200
H452        H  0.32575731  0.08357513  0.61220167     0.33100
H453        H  0.15543897  0.08563919  0.62565470     0.39000
H454        H  0.32704382  0.39879549  0.60702240     0.33500
H455        H  0.16032819  0.40004763  0.60856059     0.32300
H456        H  0.09276296  0.34153681  0.61092108     0.34000
H457        H  0.08490579  0.20041910  0.59594422     0.33000
H458        H  0.32567712  0.33002150  0.52427796     0.37000
H459        H  0.26862014  0.25382597  0.45756941     0.29700
H460        H  0.26488670  0.24606602  0.77573065     0.34000
H461        H  0.11650486  0.13288886  0.67708049     0.36800
H462        H  0.19355749  0.39494284  0.64403227     0.29400
H463        H  0.23489205  0.21454164  0.45045795     0.42300
H464        H  0.39413481  0.19400194  0.63586342     0.32300
H465        H  0.39953324  0.27405886  0.62269763     0.40000
H466        H  0.08993886  0.22066276  0.63845478     0.31800
H467        H  0.27867951  0.08725575  0.63206336     0.31900
H468        H  0.22503764  0.21377161  0.76596270     0.32100
Zr469      Zr  0.76301990  0.76155831  0.17004122     2.17500
O470        O  0.74902452  0.75830488  0.24123554    -0.50200
O471        O  0.81952316  0.81408363  0.19267954    -0.73400
O472        O  0.80245529  0.70065022  0.20276108    -0.80200
O473        O  0.65821318  0.83436859  0.15722662    -0.82000
O474        O  0.83716889  0.65785420  0.15660711    -0.77600
O475        O  0.70059434  0.79845881  0.20291301    -0.89200
O476        O  0.85447232  0.84665694  0.14060621    -0.75200
O477        O  0.82529097  0.75606126  0.12645962    -0.84700
O478        O  0.75873809  0.82406113  0.12721847    -0.84400
O479        O  0.75239189  0.69190482  0.13631192    -0.71100
O480        O  0.69280353  0.75510315  0.13607280    -0.83200
Zr481      Zr  0.74343496  0.74333182  0.01344136     2.26400
Zr482      Zr  0.81488469  0.68706197  0.09223121     2.06300
Zr483      Zr  0.68940943  0.81706654  0.09247318     2.10000
Zr484      Zr  0.81985473  0.81781257  0.08255841     1.78800
O485        O  0.60856287  0.81298288  0.08555255    -0.92000
O486        O  0.89975172  0.80765014  0.07260159    -0.39900
O487        O  0.75112223  0.81286290  0.04736932    -0.76500
O488        O  0.81320576  0.74956943  0.04836846    -0.95200
O489        O  0.74631474  0.68065007  0.05618044    -0.88500
O490        O  0.68035836  0.74927105  0.05629348    -0.88800
C491        C  0.84819029  0.84060091  0.17742339     1.02400
C492        C  0.66754535  0.82304046  0.19287840     1.15400
C493        C  0.82690261  0.66763660  0.19250917     1.06100
O494        O  0.89570203  0.67935387  0.09439378    -0.93500
O495        O  0.84410618  0.66708024  0.02764231    -0.89200
O496        O  0.80363106  0.70338128  0.98069530    -0.82400
C497        C  0.83556305  0.67800208  0.99174616     1.12800
O498        O  0.65397851  0.65687337  0.16083216    -0.95500
Zr499      Zr  0.68425806  0.68747439  0.09969855     1.88900
O500        O  0.68814199  0.69187866  0.98724825    -0.72100
O501        O  0.80252298  0.60754591  0.08746952    -0.51400
O502        O  0.69538752  0.60759832  0.10269969    -0.96000
O503        O  0.60426787  0.70024096  0.10592997    -0.53300
O504        O  0.65379459  0.65798568  0.03894502    -0.72600
C505        C  0.66013598  0.66440669  0.00196581     0.99700
O506        O  0.76032376  0.75000184  0.94293040    -0.61400
O507        O  0.68883089  0.89754017  0.09846455    -0.56200
O508        O  0.70735294  0.80650153  0.98182567    -0.92900
O509        O  0.67319869  0.84901340  0.02857716    -0.91300
O510        O  0.80711226  0.89733711  0.07911002    -0.91700
O511        O  0.84855890  0.84739650  0.02053505    -0.90500
C512        C  0.68377394  0.83977156  0.99276334     1.18600
H513        H  0.75993535  0.85141514  0.14206163     0.34500
H514        H  0.83857690  0.74985052  0.03080418     0.45400
H515        H  0.65283578  0.74966615  0.04133612     0.38900
H516        H  0.75142990  0.66726398  0.15439964     0.35400
H517        H  0.91295295  0.83742671  0.07653941     0.27200
H518        H  0.83247292  0.59442282  0.09127399     0.33100
H519        H  0.66700322  0.59447782  0.09320823     0.39000
H520        H  0.83707067  0.91078548  0.08233650     0.33500
H521        H  0.65714705  0.90521107  0.10320243     0.32300
H522        H  0.59860831  0.84421789  0.08487074     0.34000
H523        H  0.59470447  0.71183402  0.07988745     0.33000
H524        H  0.82852705  0.83505598  0.99992558     0.37000
H525        H  0.73119371  0.74903622  0.92906838     0.29700
H526        H  0.77874677  0.75876950  0.25410991     0.34000
H527        H  0.63118947  0.63493525  0.15254382     0.36800
H528        H  0.70390033  0.90422359  0.12388068     0.29400
H529        H  0.77168360  0.78049779  0.93901536     0.42300
H530        H  0.90643936  0.70721622  0.10664149     0.32300
H531        H  0.90978993  0.79049506  0.09589186     0.40000
H532        H  0.60178835  0.72589129  0.12412730     0.31800
H533        H  0.78602554  0.59982988  0.11190483     0.31900
H534        H  0.73695733  0.72831978  0.24634848     0.32100
Zr535      Zr  0.74430091  0.74375628  0.69098538     2.17500
O536        O  0.76356228  0.75248454  0.76089449    -0.50200
O537        O  0.68927308  0.69196106  0.71656147    -0.73400
O538        O  0.70352343  0.80320463  0.72381445    -0.80200
O539        O  0.84866964  0.67125493  0.67553059    -0.82000
O540        O  0.66992313  0.84630028  0.67725577    -0.77600
O541        O  0.80668044  0.70584790  0.72256410    -0.89200
O542        O  0.65262633  0.66156696  0.66419090    -0.75200
O543        O  0.68162066  0.74990039  0.64767858    -0.84700
O544        O  0.74829048  0.68151140  0.64744189    -0.84400
O545        O  0.75296709  0.81358088  0.65766028    -0.71100
O546        O  0.81423738  0.74931370  0.65713145    -0.83200
Zr547      Zr  0.76404981  0.76487452  0.53489733     2.26400
Zr548      Zr  0.69088996  0.81832082  0.61247851     2.06300
Zr549      Zr  0.81703550  0.68873811  0.61154461     2.10000
Zr550      Zr  0.68639493  0.68831394  0.60386372     1.78800
O551        O  0.89806309  0.69089431  0.60563760    -0.92000
O552        O  0.60675719  0.70131382  0.59480776    -0.39900
O553        O  0.75477893  0.69491826  0.56766749    -0.76500
O554        O  0.69342555  0.75609440  0.56815479    -0.95200
O555        O  0.76086058  0.82624022  0.57909045    -0.88500
O556        O  0.82646894  0.75777194  0.57812065    -0.91300
C557        C  0.65950849  0.66666243  0.70130323     1.02400
C558        C  0.83965090  0.68174144  0.71144230     1.15400
C559        C  0.67943507  0.83612288  0.71312646     1.06100
O560        O  0.60976090  0.82098193  0.61629928    -0.93500
O561        O  0.66055633  0.83882959  0.54776257    -0.89200
O562        O  0.70424150  0.80531702  0.50153571    -0.82400
C563        C  0.67081202  0.82925665  0.51177395     1.12800
O564        O  0.85016443  0.84307042  0.68797957    -0.95500
Zr565      Zr  0.82214664  0.81802836  0.62383389     1.88900
O566        O  0.81872515  0.82025969  0.51404658    -0.72100
O567        O  0.69714327  0.89846083  0.60722004    -0.51400
O568        O  0.81132844  0.89760177  0.63098965    -0.96000
O569        O  0.90240826  0.80603429  0.62970620    -0.53300
O570        O  0.85362417  0.85165709  0.56695374    -0.72600
C571        C  0.84669153  0.84714933  0.53006416     0.99700
O572        O  0.76119549  0.75213984  0.46343089    -0.61400
O573        O  0.81382039  0.60811038  0.61494833    -0.56200
O574        O  0.79938981  0.70287780  0.50126034    -0.92900
O575        O  0.83469274  0.65940506  0.54640369    -0.91300
O576        O  0.69903704  0.60876005  0.60012903    -0.91700
O577        O  0.65516955  0.65430562  0.54447892    -0.90500
C578        C  0.82345829  0.66955891  0.51093013     1.18600
H579        H  0.74723463  0.65410558  0.66206870     0.34500
H580        H  0.66862584  0.75580875  0.54994012     0.45400
H581        H  0.85409848  0.75796745  0.56333984     0.38900
H582        H  0.75374615  0.83827632  0.67586189     0.35400
H583        H  0.59257256  0.67196598  0.59840983     0.27200
H584        H  0.66638272  0.90941052  0.61163060     0.33100
H585        H  0.84107848  0.91085368  0.62613578     0.39000
H586        H  0.67268558  0.59528669  0.61308565     0.33500
H587        H  0.84540901  0.59865132  0.61630478     0.32300
H588        H  0.90707442  0.65953958  0.60262367     0.34000
H589        H  0.91603862  0.83548482  0.62519113     0.33000
H590        H  0.67343045  0.66622580  0.52251329     0.37000
H591        H  0.73035511  0.74231196  0.45742479     0.29700
H592        H  0.73522537  0.74936475  0.77571203     0.34000
H593        H  0.87240303  0.86647926  0.68225665     0.36800
H594        H  0.80166391  0.60120774  0.64147917     0.29400
H595        H  0.76410006  0.78167288  0.45100813     0.42300
H596        H  0.60178060  0.79978196  0.63746225     0.32300
H597        H  0.59759752  0.71842532  0.61849471     0.40000
H598        H  0.91085130  0.78853302  0.60605403     0.31800
H599        H  0.71375707  0.90769632  0.63120870     0.31900
H600        H  0.77251461  0.78385982  0.76433273     0.32100
Zr601      Zr  0.76245258  0.22958914  0.17051987     2.17500
O602        O  0.75785967  0.24190145  0.24190906    -0.50200
O603        O  0.81685730  0.17443587  0.19154395    -0.73400
O604        O  0.70298344  0.18754882  0.20266554    -0.80200
O605        O  0.83109404  0.33658001  0.16114426    -0.82000
O606        O  0.66055780  0.15330847  0.15583916    -0.77600
O607        O  0.79650334  0.29166151  0.20561035    -0.89200
O608        O  0.84871926  0.14043239  0.13850392    -0.75200
O609        O  0.75893888  0.16898779  0.12537525    -0.84700
O610        O  0.82567437  0.23681040  0.12818418    -0.84400
O611        O  0.69194806  0.23882297  0.13722190    -0.71100
O612        O  0.75408846  0.29995150  0.13853079    -0.83200
Zr613      Zr  0.74359677  0.25314927  0.01494681     2.26400
Zr614      Zr  0.68909156  0.17770276  0.09169067     2.06300
Zr615      Zr  0.81688059  0.30629039  0.09540130     2.10000
Zr616      Zr  0.82105728  0.17767584  0.08158297     1.78800
O617        O  0.81801438  0.38672537  0.09081054    -0.92000
O618        O  0.81300936  0.09887279  0.06743596    -0.39900
O619        O  0.81380607  0.24671246  0.04850217    -0.76500
O620        O  0.75198603  0.18304726  0.04774982    -0.95200
O621        O  0.68058475  0.24676731  0.05766349    -0.88500
O622        O  0.74818574  0.31454372  0.05946631    -0.91300
C623        C  0.84294515  0.14592899  0.17548825     1.02400
C624        C  0.81978567  0.32583490  0.19649623     1.15400
C625        C  0.67034487  0.16273281  0.19194243     1.06100
O626        O  0.68781149  0.09706063  0.09165240    -0.93500
O627        O  0.66942537  0.15050907  0.02620622    -0.89200
O628        O  0.70536232  0.19308461  0.98054377    -0.82400
C629        C  0.68033477  0.16049763  0.99057623     1.12800
O630        O  0.65558749  0.33907837  0.16345306    -0.95500
Zr631      Zr  0.68574471  0.30747001  0.10255020     1.88900
O632        O  0.68962831  0.30668955  0.99051944    -0.72100
O633        O  0.60807501  0.18374026  0.08835985    -0.51400
O634        O  0.60565919  0.29415073  0.10793389    -0.96000
O635        O  0.69795472  0.38714721  0.10745081    -0.53300
O636        O  0.65252808  0.33605362  0.04297139    -0.72600
C637        C  0.65982578  0.33172744  0.00591049     0.99700
O638        O  0.75090018  0.24016509  0.94379176    -0.61400
O639        O  0.89778267  0.30163160  0.10247882    -0.56200
O640        O  0.80694677  0.29109318  0.98462211    -0.92900
O641        O  0.84825512  0.32602886  0.03191950    -0.91300
O642        O  0.90099035  0.19264094  0.08025902    -0.91700
O643        O  0.85417781  0.15573136  0.01865653    -0.90500
C644        C  0.83964295  0.31551100  0.99594655     1.18600
H645        H  0.85318280  0.23590187  0.14307049     0.34500
H646        H  0.75301559  0.15849856  0.02944345     0.45400
H647        H  0.74791953  0.34225220  0.04525159     0.38900
H648        H  0.66714645  0.23843397  0.15539629     0.35400
H649        H  0.84280259  0.08605766  0.07281443     0.27200
H650        H  0.59707122  0.15325456  0.09294646     0.33100
H651        H  0.59132688  0.32164459  0.09835636     0.39000
H652        H  0.91523698  0.16343573  0.08429732     0.33500
H653        H  0.90894443  0.33120534  0.09460102     0.32300
H654        H  0.84992244  0.39487662  0.09334686     0.34000
H655        H  0.70358110  0.39727179  0.08004163     0.33000
H656        H  0.84126929  0.17641959  0.99905615     0.37000
H657        H  0.75085223  0.26974958  0.93119500     0.29700
H658        H  0.76181010  0.21245329  0.25425206     0.34000
H659        H  0.63190687  0.35988231  0.15503751     0.36800
H660        H  0.90346839  0.30019544  0.13132244     0.29400
H661        H  0.78138802  0.22840752  0.93962869     0.42300
H662        H  0.71309544  0.08836331  0.10881672     0.32300
H663        H  0.79386361  0.08743230  0.08900149     0.40000
H664        H  0.72715744  0.39018173  0.12094336     0.31800
H665        H  0.59955809  0.20022983  0.11259802     0.31900
H666        H  0.72654652  0.25031178  0.24752059     0.32100
Zr667      Zr  0.74091510  0.25089840  0.69170033     2.17500
O668        O  0.74203864  0.23788554  0.76307423    -0.50200
O669        O  0.68717919  0.30456831  0.71684967    -0.73400
O670        O  0.80184203  0.28918648  0.72566824    -0.80200
O671        O  0.67005687  0.14586398  0.67442174    -0.82000
O672        O  0.84275770  0.32703845  0.68006475    -0.77600
O673        O  0.70747237  0.18527462  0.72157360    -0.89200
O674        O  0.65415797  0.33871713  0.66471715    -0.75200
O675        O  0.74557090  0.31356287  0.64906117    -0.84700
O676        O  0.67871597  0.24528781  0.64767472    -0.84400
O677        O  0.81204652  0.24442708  0.65882243    -0.71100
O678        O  0.74878734  0.18201503  0.65697465    -0.83200
Zr679      Zr  0.76377094  0.23412675  0.53552201     2.26400
Zr680      Zr  0.81549957  0.30682821  0.61482036     2.06300
Zr681      Zr  0.68831022  0.17778756  0.61095149     2.10000
Zr682      Zr  0.68403132  0.30720535  0.60470418     1.78800
O683        O  0.69633627  0.09796141  0.60327071    -0.92000
O684        O  0.69204728  0.38706582  0.59766360    -0.39900
O685        O  0.69278408  0.24017606  0.56787436    -0.76500
O686        O  0.75336977  0.30329181  0.56997160    -0.95200
O687        O  0.82528366  0.23839111  0.58002648    -0.88500
O688        O  0.75827047  0.17133131  0.57780779    -0.91300
C689        C  0.66009650  0.33263075  0.70176332     1.02400
C690        C  0.68229905  0.15323320  0.71018421     1.15400
C691        C  0.83374690  0.31519838  0.71560561     1.06100
O692        O  0.81301982  0.38722627  0.61999288    -0.93500
O693        O  0.83831632  0.33740485  0.55109274    -0.89200
O694        O  0.80436768  0.29502924  0.50409434    -0.82400
C695        C  0.82867489  0.32792554  0.51496833     1.12800
O696        O  0.84447158  0.15081819  0.68811779    -0.95500
Zr697      Zr  0.81855168  0.17670995  0.62373001     1.88900
O698        O  0.81885663  0.18002962  0.51370501    -0.72100
O699        O  0.89666015  0.30418506  0.61094195    -0.51400
O700        O  0.89859621  0.19042291  0.62802670    -0.96000
O701        O  0.81010203  0.09677012  0.63077976    -0.53300
O702        O  0.85070660  0.14485844  0.56602581    -0.72600
C703        C  0.84546841  0.15171417  0.52919826     0.99700
O704        O  0.75171444  0.24006058  0.46417029    -0.61400
O705        O  0.60701572  0.17598306  0.61372739    -0.56200
O706        O  0.70175345  0.19821065  0.50120738    -0.92900
O707        O  0.65902110  0.16058393  0.54557954    -0.91300
O708        O  0.60467160  0.29055966  0.59942245    -0.91700
O709        O  0.65094550  0.33649258  0.54431845    -0.90500
C710        C  0.66881259  0.17298654  0.51032994     1.18600
H711        H  0.65089585  0.24517092  0.66206228     0.34500
H712        H  0.75302596  0.32826295  0.55222612     0.45400
H713        H  0.75922396  0.14409707  0.56276449     0.38900
H714        H  0.83712883  0.24358906  0.67676337     0.35400
H715        H  0.66259120  0.39929844  0.60519126     0.27200
H716        H  0.90687343  0.33245534  0.62286348     0.33100
H717        H  0.91274113  0.16151930  0.62221029     0.39000
H718        H  0.58947483  0.31750028  0.60931075     0.33500
H719        H  0.59930335  0.14408918  0.61400774     0.32300
H720        H  0.66598451  0.08591844  0.60760209     0.34000
H721        H  0.83977821  0.08436722  0.62420473     0.33000
H722        H  0.66940936  0.32406635  0.52266947     0.37000
H723        H  0.74083823  0.27054482  0.45943398     0.29700
H724        H  0.74201526  0.26747977  0.77577574     0.34000
H725        H  0.87022961  0.13127192  0.68256985     0.36800
H726        H  0.59914343  0.18668414  0.64056118     0.29400
H727        H  0.78165889  0.23882520  0.45178508     0.42300
H728        H  0.79381473  0.39328970  0.64323651     0.32300
H729        H  0.71215260  0.39600350  0.61956506     0.40000
H730        H  0.79073506  0.08754692  0.60846560     0.31800
H731        H  0.90548330  0.28134570  0.63036405     0.31900
H732        H  0.77181570  0.22529379  0.76900004     0.32100
O733        O  0.90549721  0.08226738  0.28664565    -0.74200
O734        O  0.94352568  0.04287162  0.23965258    -0.53100
C735        C  0.91468899  0.07173191  0.25084111     0.79600
O736        O  0.08452320  0.08718501  0.41682803    -0.58800
O737        O  0.04652398  0.04933817  0.46470878    -0.51800
C738        C  0.07581056  0.07744902  0.45282756     0.71600
O739        O  0.07774034  0.08978565  0.28640180    -0.73300
O740        O  0.04093622  0.04859154  0.23973368    -0.53900
C741        C  0.06807042  0.07927937  0.25071960     0.77600
O742        O  0.90449081  0.08387232  0.41770753    -0.58500
O743        O  0.94643830  0.04960892  0.46516507    -0.51600
C744        C  0.91591361  0.07644340  0.45358065     0.74200
Zr745      Zr  0.92719985  0.06098179  0.35254355     2.54700
O746        O  0.92341278  0.14140703  0.35137762    -0.79000
O747        O  0.84625347  0.05335587  0.35327418    -0.92500
Zr748      Zr  0.05868858  0.06625454  0.35202451     2.64700
O749        O  0.05364765  0.14673266  0.35291488    -0.97400
O750        O  0.13986428  0.06776593  0.34877773    -0.79500
O751        O  0.99268825  0.06407320  0.31367451    -0.82800
O752        O  0.99318178  0.06610250  0.39088455    -2.17500
O753        O  0.90965941  0.91135415  0.42009072    -0.66200
O754        O  0.94733275  0.95165466  0.46682575    -0.50800
C755        C  0.91895529  0.92212230  0.45579271     0.72500
O756        O  0.08347190  0.91078269  0.28835416    -0.59100
O757        O  0.04536819  0.94900764  0.24079824    -0.51100
C758        C  0.07379700  0.92003138  0.25243279     0.74300
O759        O  0.08681348  0.91659374  0.41898149    -0.70500
O760        O  0.04589897  0.95291155  0.46607015    -0.49200
C761        C  0.07607487  0.92553674  0.45474551     0.75700
O762        O  0.91084505  0.90571213  0.28928203    -0.65900
O763        O  0.94744481  0.94503829  0.24145934    -0.53100
C764        C  0.92003656  0.91507696  0.25326659     0.74100
Zr765      Zr  0.93210357  0.93115370  0.35417657     2.77500
O766        O  0.93610463  0.85060752  0.35638412    -0.96600
O767        O  0.85087909  0.93168215  0.35290005    -0.77400
Zr768      Zr  0.06359633  0.93643693  0.35338648     2.70100
O769        O  0.06914658  0.85613426  0.35688826    -0.78700
O770        O  0.14429293  0.94570595  0.35037906    -0.97800
Zr771      Zr  0.99487701  0.99708005  0.27656302     2.21500
Zr772      Zr  0.99592344  0.00036820  0.42953900     2.11100
O773        O  0.99812576  0.93328316  0.39230001    -2.46400
O774        O  0.99762436  0.93139817  0.31515362    -0.78500
O775        O  0.92860614  0.99682627  0.39233553    -0.70700
O776        O  0.06230164  0.00066192  0.31383580    -2.31600
O777        O  0.92805419  0.99525184  0.31459494    -2.27800
O778        O  0.06274041  0.00204084  0.39160819    -0.72400
H779        H  0.99255366  0.09222680  0.40743293     0.79600
H780        H  0.08816048  0.00131995  0.29680586     0.80700
H781        H  0.99907601  0.90775434  0.40943824     0.82900
H782        H  0.90197701  0.99386132  0.29784065     0.80500
H783        H  0.14767620  0.09963432  0.34840306     0.43500
H784        H  0.15104446  0.96873460  0.37044922     0.42500
H785        H  0.03963870  0.84532682  0.34779491     0.42200
H786        H  0.94793671  0.84350332  0.38300374     0.40100
H787        H  0.84237770  0.95488870  0.37223935     0.43200
H788        H  0.83873457  0.03787925  0.32825459     0.38000
H789        H  0.95197740  0.15068378  0.33919331     0.44100
H790        H  0.03680099  0.15395880  0.37731234     0.40600
H791        H  0.90456544  0.84077848  0.35713765     0.45500
H792        H  0.83500745  0.08387757  0.34953995     0.44200
H793        H  0.08443201  0.15696679  0.35845808     0.44300
H794        H  0.15647575  0.91804343  0.36172539     0.44700
O795        O  0.42433235  0.91077607  0.93195702    -0.74200
O796        O  0.37040509  0.94746483  0.89712112    -0.53100
C797        C  0.38364901  0.91918595  0.92294621     0.79600
O798        O  0.57123874  0.09036821  0.92615305    -0.58800
O799        O  0.62516803  0.05068929  0.89390395    -0.51800
C800        C  0.61191342  0.08145618  0.91755679     0.71600
O801        O  0.42241139  0.08487097  0.93005631    -0.73300
O802        O  0.36910806  0.04603655  0.89606268    -0.53900
C803        C  0.38176994  0.07537099  0.92135432     0.77600
O804        O  0.57345717  0.90856872  0.92882959    -0.58500
O805        O  0.62677686  0.94873280  0.89635858    -0.51600
C806        C  0.61407511  0.91846527  0.92060766     0.74200
Zr807      Zr  0.49872001  0.93321746  0.91263336     2.54700
O808        O  0.50206751  0.94195203  0.98426213    -0.79000
O809        O  0.49809363  0.85267164  0.91704650    -0.92500
Zr810      Zr  0.49739359  0.06276695  0.91129395     2.64700
O811        O  0.49891790  0.05806549  0.98329805    -0.97400
O812        O  0.49507510  0.14327132  0.91370858    -0.79500
O813        O  0.45367789  0.99758296  0.91289294    -0.82800
O814        O  0.54249862  0.99843136  0.91284734    -2.17500
O815        O  0.57132833  0.90548277  0.77902981    -0.66200
O816        O  0.62536254  0.94592545  0.81055703    -0.50800
C817        C  0.61201403  0.91522187  0.78679613     0.72500
O818        O  0.42384078  0.08481971  0.77588274    -0.59100
O819        O  0.37010575  0.04641617  0.80951100    -0.51100
C820        C  0.38318840  0.07582978  0.78451951     0.74300
O821        O  0.57185647  0.08336979  0.77383810    -0.70500
O822        O  0.62557096  0.04638697  0.80858687    -0.49200
C823        C  0.61254965  0.07470133  0.78267669     0.75700
O824        O  0.42336801  0.90855317  0.77560353    -0.65900
O825        O  0.36984903  0.94640405  0.80996492    -0.53100
C826        C  0.38272027  0.91756962  0.78430121     0.74100
Zr827      Zr  0.49751627  0.93086831  0.79590935     2.77500
O828        O  0.49898722  0.93173246  0.72379735    -0.96600
O829        O  0.49460876  0.85039139  0.79960809    -0.77400
Zr830      Zr  0.49779942  0.06106053  0.79441162     2.70100
O831        O  0.49605532  0.05887989  0.72235783    -0.78700
O832        O  0.49905936  0.14157777  0.79776096    -0.97800
Zr833      Zr  0.41087935  0.99662372  0.85317685     2.21500
Zr834      Zr  0.58496072  0.99750917  0.85293976     2.11100
O835        O  0.54157773  0.99597087  0.79366279    -2.46400
O836        O  0.45363049  0.99588955  0.79371946    -0.78500
O837        O  0.54173441  0.93124566  0.85398267    -0.70700
O838        O  0.45421086  0.06291477  0.85276083    -2.31600
O839        O  0.45457549  0.93063154  0.85440998    -2.27800
O840        O  0.54114412  0.06320857  0.85281026    -0.72400
H841        H  0.56187756  0.99899446  0.93574893     0.79600
H842        H  0.43542593  0.08885509  0.85262486     0.80700
H843        H  0.56044951  0.99547099  0.77045706     0.82900
H844        H  0.43587747  0.90455532  0.85466063     0.80500
H845        H  0.48582631  0.15215196  0.88672840     0.43500
H846        H  0.52553069  0.14877946  0.81417130     0.42500
H847        H  0.48432156  0.02906009  0.71586486     0.42200
H848        H  0.52838829  0.94448659  0.71677946     0.40100
H849        H  0.51891812  0.84233490  0.81810771     0.43200
H850        H  0.47323420  0.84303038  0.89967138     0.38000
H851        H  0.47339536  0.95612209  0.99142701     0.44100
H852        H  0.52785466  0.04402888  0.98970753     0.40600
H853        H  0.50118943  0.90014333  0.71609736     0.45500
H854        H  0.48762442  0.84625290  0.94423997     0.44200
H855        H  0.50234558  0.08914019  0.99227040     0.44300
H856        H  0.50731721  0.15109663  0.77070627     0.44700
O857        O  0.08886956  0.42553740  0.92893624    -0.74200
O858        O  0.04961207  0.37163372  0.89623291    -0.53100
C859        C  0.07948352  0.38505613  0.92098664     0.79600
O860        O  0.90942061  0.57071569  0.92964250    -0.58800
O861        O  0.94671455  0.62410135  0.89492716    -0.51800
C862        C  0.91742027  0.61096836  0.92019501     0.71600
O863        O  0.91095267  0.42459685  0.93174462    -0.73300
O864        O  0.94800215  0.37092019  0.89708146    -0.53900
C865        C  0.91924830  0.38415540  0.92283804     0.77600
O866        O  0.08974629  0.57276079  0.92685069    -0.58500
O867        O  0.04916186  0.62557504  0.89457744    -0.51600
C868        C  0.07963278  0.61306543  0.91898556     0.74200
Zr869      Zr  0.06603470  0.49867262  0.90850670     2.54700
O870        O  0.06743376  0.50102546  0.98055847    -0.79000
O871        O  0.14711792  0.49968689  0.90329038    -0.92500
Zr872      Zr  0.93540771  0.49773422  0.91258543     2.64700
O873        O  0.94430791  0.49816437  0.98428835    -0.97400
O874        O  0.85431759  0.49667720  0.91610834    -0.79500
O875        O  0.00086933  0.45411304  0.91205213    -0.82800
O876        O  0.00053040  0.54209029  0.91172676    -2.17500
O877        O  0.08815604  0.56980912  0.77592636    -0.66200
O878        O  0.04893071  0.62378379  0.80833141    -0.50800
C879        C  0.07922292  0.61033506  0.78411647     0.72500
O880        O  0.90523851  0.42349181  0.77911383    -0.59100
O881        O  0.94532393  0.37024960  0.81147875    -0.51100
C882        C  0.91453318  0.38317433  0.78756878     0.74300
O883        O  0.90721834  0.57134696  0.77711299    -0.70500
O884        O  0.94750396  0.62476343  0.80938290    -0.49200
C885        C  0.91723063  0.61177100  0.78493380     0.75700
O886        O  0.08464500  0.42228745  0.77379107    -0.65900
O887        O  0.04687058  0.36932126  0.80861580    -0.53100
C888        C  0.07586276  0.38195370  0.78286485     0.74100
Zr889      Zr  0.06075951  0.49647804  0.79159156     2.77500
O890        O  0.04716063  0.49720078  0.72040605    -0.96600
O891        O  0.14128627  0.49476111  0.78277217    -0.77400
Zr892      Zr  0.93051797  0.49737668  0.79569455     2.70100
O893        O  0.93384906  0.49677033  0.72361697    -0.78700
O894        O  0.84919046  0.49794201  0.79692346    -0.97800
Zr895      Zr  0.99804249  0.41085836  0.85282633     2.21500
Zr896      Zr  0.99824639  0.58414035  0.85202566     2.11100
O897        O  0.99595970  0.54104094  0.79260596    -2.46400
O898        O  0.99536586  0.45254357  0.79281703    -0.78500
O899        O  0.06446357  0.54065904  0.84964973    -0.70700
O900        O  0.93186388  0.45466459  0.85431155    -2.31600
O901        O  0.06455661  0.45445798  0.85048779    -2.27800
O902        O  0.93180709  0.54073932  0.85413722    -0.72400
H903        H  0.00120359  0.56116522  0.93476120     0.79600
H904        H  0.90542739  0.43634397  0.85522950     0.80700
H905        H  0.99535237  0.55986055  0.76951965     0.82900
H906        H  0.09076110  0.43588693  0.84993918     0.80500
H907        H  0.84449054  0.50469248  0.88906371     0.43500
H908        H  0.84118550  0.52453298  0.81261034     0.42500
H909        H  0.90698221  0.48008658  0.71517959     0.42200
H910        H  0.03923556  0.52822200  0.71416133     0.40100
H911        H  0.15332410  0.50624087  0.80812583     0.43200
H912        H  0.15452546  0.47461714  0.88550643     0.38000
H913        H  0.04687009  0.47708985  0.98884754     0.44100
H914        H  0.95575196  0.52809332  0.99077857     0.40600
H915        H  0.07702761  0.49306575  0.70842992     0.45500
H916        H  0.15778539  0.49023778  0.92968925     0.44200
H917        H  0.91339389  0.49796627  0.99464654     0.44300
H918        H  0.84028978  0.50525843  0.76947038     0.44700
C919        C  0.64529270  0.09937103  0.76130771    -0.12200
C920        C  0.66563694  0.12353380  0.73956312    -0.13700
C921        C  0.87115068  0.12478904  0.50358895    -0.12200
C922        C  0.89262576  0.10130743  0.48244869    -0.13700
C923        C  0.86252251  0.33167237  0.74600017    -0.12200
C924        C  0.88772606  0.35092412  0.76775603    -0.13700
C925        C  0.64426206  0.10808497  0.93748560    -0.12200
C926        C  0.66364562  0.13243180  0.95984141    -0.13700
C927        C  0.89355051  0.35215442  0.94409483    -0.12200
C928        C  0.86898683  0.33266991  0.96624108    -0.13700
C929        C  0.89033074  0.09497933  0.22159952    -0.12200
C930        C  0.86817699  0.11795063  0.20058220    -0.13700
C931        C  0.66266718  0.86463048  0.74342840    -0.12200
C932        C  0.64404698  0.88928823  0.76594648    -0.13700
C933        C  0.89232833  0.64418917  0.76356052    -0.12200
C934        C  0.86856757  0.66442161  0.74133404    -0.13700
C935        C  0.87263409  0.87473686  0.50521425    -0.12200
C936        C  0.89515058  0.89821448  0.48494316    -0.13700
C937        C  0.89064939  0.64279758  0.94033891    -0.12200
C938        C  0.86503857  0.66142173  0.96204334    -0.13700
C939        C  0.64702489  0.89316150  0.94108663    -0.12200
C940        C  0.66715256  0.86884822  0.96284411    -0.13700
C941        C  0.87505843  0.86641980  0.20325080    -0.12200
C942        C  0.89707360  0.88955055  0.22444266    -0.13700
C943        C  0.12493667  0.12249145  0.50235358    -0.12200
C944        C  0.10150471  0.10044994  0.48147651    -0.13700
C945        C  0.33174243  0.12698569  0.74232179    -0.12200
C946        C  0.35083877  0.10177867  0.76399655    -0.13700
C947        C  0.10141137  0.34932979  0.76201179    -0.12200
C948        C  0.12626022  0.32935234  0.74037704    -0.13700
C949        C  0.10551077  0.64226897  0.76337655    -0.12200
C950        C  0.12975158  0.66207141  0.74119270    -0.13700
C951        C  0.12165732  0.87797380  0.50419811    -0.12200
C952        C  0.09975242  0.90159736  0.48372443    -0.13700
C953        C  0.34991256  0.89279892  0.76288861    -0.12200
C954        C  0.32952650  0.86911369  0.74057650    -0.13700
C955        C  0.10456734  0.64586523  0.94037162    -0.12200
C956        C  0.12809231  0.66640258  0.96284760    -0.13700
C957        C  0.33161395  0.86941616  0.96567311    -0.12200
C958        C  0.35126765  0.89394695  0.94389691    -0.13700
C959        C  0.11970489  0.87234007  0.20280508    -0.12200
C960        C  0.09733860  0.89540666  0.22357491    -0.13700
C961        C  0.13024509  0.33373574  0.96392602    -0.12200
C962        C  0.10539107  0.35319931  0.94208453    -0.13700
C963        C  0.34861927  0.10022544  0.94215119    -0.12200
C964        C  0.32769904  0.12402560  0.96389309    -0.13700
C965        C  0.09059686  0.10421789  0.22144754    -0.12200
C966        C  0.11344883  0.12708905  0.20090312    -0.13700
C967        C  0.16229312  0.35857473  0.48013766    -0.12200
C968        C  0.15345567  0.38553281  0.45488627    -0.13700
C969        C  0.14816748  0.61182628  0.25015551    -0.12200
C970        C  0.15680303  0.63880689  0.22485716    -0.13700
C971        C  0.14749345  0.64368067  0.47898778    -0.12200
C972        C  0.14043202  0.61583835  0.45377806    -0.13700
C973        C  0.14527445  0.38139253  0.25103382    -0.12200
C974        C  0.15225367  0.35394867  0.22552989    -0.13700
C975        C  0.38274108  0.84694556  0.45424435    -0.12200
C976        C  0.35542914  0.83847319  0.47935540    -0.13700
C977        C  0.61143774  0.84678315  0.24970848    -0.12200
C978        C  0.63786274  0.83762344  0.22386281    -0.13700
C979        C  0.64106631  0.84345679  0.48063933    -0.12200
C980        C  0.61435740  0.85039387  0.45441242    -0.13700
C981        C  0.35164929  0.84883427  0.22595561    -0.12200
C982        C  0.37934489  0.85678764  0.25117672    -0.13700
C983        C  0.84514955  0.61382834  0.45392742    -0.12200
C984        C  0.83721202  0.64037867  0.47969543    -0.13700
C985        C  0.84138751  0.38157303  0.25404314    -0.12200
C986        C  0.83285092  0.35509942  0.22818677    -0.13700
C987        C  0.85033060  0.38441254  0.45827813    -0.12200
C988        C  0.84329620  0.35789963  0.48439608    -0.13700
C989        C  0.84114088  0.63789512  0.22347744    -0.12200
C990        C  0.84830577  0.61138829  0.24961509    -0.13700
C991        C  0.61316662  0.15031779  0.45291794    -0.12200
C992        C  0.63964033  0.15907405  0.47880362    -0.13700
C993        C  0.35527125  0.15486397  0.22444405    -0.12200
C994        C  0.38236010  0.14564923  0.24961141    -0.13700
C995        C  0.35521338  0.15070551  0.48061555    -0.12200
C996        C  0.38178970  0.14417036  0.45419909    -0.13700
C997        C  0.61421004  0.13968180  0.24877829    -0.12200
C998        C  0.64087019  0.14725866  0.22271059    -0.13700
C999        C  0.63244192  0.35765701  0.98022604    -0.12200
C1000       C  0.60729003  0.38314681  0.96445519    -0.13700
C1001       C  0.36113302  0.63986160  0.97968525    -0.12200
C1002       C  0.38514448  0.61333480  0.96361378    -0.13700
C1003       C  0.60880542  0.61214013  0.95980561    -0.12200
C1004       C  0.63360690  0.63818100  0.97556610    -0.13700
C1005       C  0.35878618  0.35756414  0.98033871    -0.12200
C1006       C  0.38321167  0.38373478  0.96440670    -0.13700
C1007       C  0.60714141  0.61546063  0.74342037    -0.12200
C1008       C  0.63190450  0.64112387  0.72725151    -0.13700
C1009       C  0.63414973  0.35985755  0.72778643    -0.12200
C1010       C  0.60983309  0.38612009  0.74378064    -0.13700
C1011       C  0.38638699  0.38336374  0.74379643    -0.12200
C1012       C  0.36221127  0.35677927  0.72800101    -0.13700
C1013       C  0.35976188  0.63815372  0.72275190    -0.12200
C1014       C  0.38435669  0.61263319  0.73931526    -0.13700
loop_ 
_geom_bond_atom_site_label_1 
_geom_bond_atom_site_label_2 
_geom_bond_distance 
_geom_bond_site_symmetry_2 
_ccdc_geom_bond_type 
N1            C6   1.351       .  A
N1            C5   1.352       .  A
N1           H33   1.035       .  S
N2            C9   1.352       .  A
N2           C10   1.352       .  A
N3            C8   1.351       .  A
N3            C7   1.351       .  A
N3           H34   1.037       .  S
N4           C11   1.351       .  A
N4           C12   1.352       .  A
C5           C13   1.387       .  A
C5           C21   1.411       .  A
C6           C22   1.412       .  A
C6           C14   1.387       .  A
C7           C15   1.387       .  A
C7           C24   1.410       .  A
C8           C23   1.410       .  A
C8           C16   1.386       .  A
C9           C21   1.412       .  A
C9           C17   1.387       .  A
C10          C24   1.412       .  A
C10          C18   1.387       .  A
C11          C19   1.388       .  A
C11          C22   1.412       .  A
C12          C20   1.386       .  A
C12          C23   1.411       .  A
C13          C14   1.376       .  A
C13          H25   1.082       .  S
C14          H26   1.082       .  S
C15          C16   1.377       .  A
C15          H27   1.082       .  S
C16          H28   1.082       .  S
C17          C18   1.371       .  A
C17          H29   1.082       .  S
C18          H30   1.082       .  S
C19          C20   1.371       .  A
C19          H31   1.082       .  S
C20          H32   1.082       .  S
C21        C1010   1.448       .  S
C22        C1011   1.446       .  S
C23        C1014   1.449       .  S
C24        C1007   1.447       .  S
N35          C40   1.352       .  A
N35          C39   1.351       .  A
N35          H67   1.035       .  S
N36          C43   1.353       .  A
N36          C44   1.352       .  A
N37          C42   1.351       .  A
N37          C41   1.351       .  A
N37          H68   1.036       .  S
N38          C45   1.351       .  A
N38          C46   1.351       .  A
C39          C47   1.387       .  A
C39          C55   1.412       .  A
C40          C56   1.412       .  A
C40          C48   1.387       .  A
C41          C49   1.388       .  A
C41          C58   1.411       .  A
C42          C57   1.411       .  A
C42          C50   1.387       .  A
C43          C55   1.414       .  A
C43          C51   1.387       .  A
C44          C58   1.413       .  A
C44          C52   1.387       .  A
C45          C53   1.387       .  A
C45          C56   1.412       .  A
C46          C54   1.387       .  A
C46          C57   1.411       .  A
C47          C48   1.376       .  A
C47          H59   1.082       .  S
C48          H60   1.082       .  S
C49          C50   1.377       .  A
C49          H61   1.082       .  S
C50          H62   1.082       .  S
C51          C52   1.372       .  A
C51          H63   1.082       .  S
C52          H64   1.082       .  S
C53          C54   1.371       .  A
C53          H65   1.082       .  S
C54          H66   1.082       .  S
C55        C1002   1.449       .  S
C56        C1003   1.446       .  S
C57        C1000   1.445       .  S
C58        C1006   1.447       .  S
N69          C74   1.355       .  A
N69          C73   1.356       .  A
N69         H101   1.037       .  S
N70          C77   1.354       .  A
N70          C78   1.353       .  A
N71          C76   1.356       .  A
N71          C75   1.355       .  A
N71         H102   1.035       .  S
N72          C79   1.353       .  A
N72          C80   1.354       .  A
C73          C81   1.387       .  A
C73          C89   1.417       .  A
C74          C90   1.418       .  A
C74          C82   1.389       .  A
C75          C83   1.389       .  A
C75          C92   1.420       .  A
C76          C91   1.419       .  A
C76          C84   1.388       .  A
C77          C89   1.416       .  A
C77          C85   1.386       .  A
C78          C92   1.416       .  A
C78          C86   1.388       .  A
C79          C87   1.387       .  A
C79          C90   1.415       .  A
C80          C88   1.387       .  A
C80          C91   1.416       .  A
C81          C82   1.374       .  A
C81          H93   1.082       .  S
C82          H94   1.082       .  S
C83          C84   1.374       .  A
C83          H95   1.082       .  S
C84          H96   1.082       .  S
C85          C86   1.373       .  A
C85          H97   1.082       .  S
C86          H98   1.082       .  S
C87          C88   1.374       .  A
C87          H99   1.082       .  S
C88         H100   1.082       .  S
C89         C996   1.460       .  S
C90         C991   1.454       .  S
C91         C997   1.459       .  S
C92         C994   1.454       .  S
N103        C108   1.355       .  A
N103        C107   1.357       .  A
N103        H135   1.037       .  S
N104        C111   1.354       .  A
N104        C112   1.352       .  A
N105        C110   1.356       .  A
N105        C109   1.353       .  A
N105        H136   1.037       .  S
N106        C113   1.352       .  A
N106        C114   1.354       .  A
C107        C115   1.387       .  A
C107        C123   1.418       .  A
C108        C124   1.419       .  A
C108        C116   1.389       .  A
C109        C117   1.389       .  A
C109        C126   1.417       .  A
C110        C125   1.417       .  A
C110        C118   1.387       .  A
C111        C123   1.415       .  A
C111        C119   1.386       .  A
C112        C126   1.415       .  A
C112        C120   1.387       .  A
C113        C121   1.387       .  A
C113        C124   1.416       .  A
C114        C122   1.386       .  A
C114        C125   1.415       .  A
C115        C116   1.374       .  A
C115        H127   1.082       .  S
C116        H128   1.082       .  S
C117        C118   1.374       .  A
C117        H129   1.082       .  S
C118        H130   1.082       .  S
C119        C120   1.374       .  A
C119        H131   1.082       .  S
C120        H132   1.082       .  S
C121        C122   1.374       .  A
C121        H133   1.082       .  S
C122        H134   1.082       .  S
C123        C990   1.461       .  S
C124        C985   1.455       .  S
C125        C987   1.459       .  S
C126        C983   1.450       .  S
N137        C142   1.357       .  A
N137        C141   1.356       .  A
N137        H169   1.036       .  S
N138        C145   1.353       .  A
N138        C146   1.354       .  A
N139        C144   1.355       .  A
N139        C143   1.356       .  A
N139        H170   1.037       .  S
N140        C147   1.353       .  A
N140        C148   1.351       .  A
C141        C149   1.388       .  A
C141        C157   1.420       .  A
C142        C158   1.420       .  A
C142        C150   1.387       .  A
C143        C151   1.388       .  A
C143        C160   1.418       .  A
C144        C159   1.418       .  A
C144        C152   1.389       .  A
C145        C157   1.417       .  A
C145        C153   1.387       .  A
C146        C160   1.416       .  A
C146        C154   1.386       .  A
C147        C155   1.387       .  A
C147        C158   1.414       .  A
C148        C156   1.388       .  A
C148        C159   1.414       .  A
C149        C150   1.375       .  A
C149        H161   1.082       .  S
C150        H162   1.082       .  S
C151        C152   1.375       .  A
C151        H163   1.082       .  S
C152        H164   1.082       .  S
C153        C154   1.375       .  A
C153        H165   1.082       .  S
C154        H166   1.082       .  S
C155        C156   1.373       .  A
C155        H167   1.082       .  S
C156        H168   1.083       .  S
C157        C977   1.457       .  S
C158        C982   1.460       .  S
C159        C975   1.451       .  S
C160        C980   1.460       .  S
N171        C176   1.357       .  A
N171        C175   1.356       .  A
N171        H203   1.038       .  S
N172        C179   1.353       .  A
N172        C180   1.354       .  A
N173        C178   1.355       .  A
N173        C177   1.356       .  A
N173        H204   1.038       .  S
N174        C181   1.354       .  A
N174        C182   1.353       .  A
C175        C183   1.388       .  A
C175        C191   1.420       .  A
C176        C192   1.419       .  A
C176        C184   1.388       .  A
C177        C185   1.387       .  A
C177        C194   1.418       .  A
C178        C193   1.420       .  A
C178        C186   1.389       .  A
C179        C191   1.416       .  A
C179        C187   1.387       .  A
C180        C194   1.415       .  A
C180        C188   1.386       .  A
C181        C189   1.386       .  A
C181        C192   1.416       .  A
C182        C190   1.387       .  A
C182        C193   1.416       .  A
C183        C184   1.376       .  A
C183        H195   1.082       .  S
C184        H196   1.082       .  S
C185        C186   1.376       .  A
C185        H197   1.082       .  S
C186        H198   1.082       .  S
C187        C188   1.374       .  A
C187        H199   1.082       .  S
C188        H200   1.082       .  S
C189        C190   1.374       .  A
C189        H201   1.082       .  S
C190        H202   1.082       .  S
C191        C968   1.457       .  S
C192        C972   1.462       .  S
C193        C969   1.457       .  S
C194        C973   1.460       .  S
Zr205       O206   2.443       .  S
Zr205       O207   2.444       .  S
Zr205       O208   2.451       .  S
Zr205       O211   2.444       .  S
Zr205       O213   2.381       .  S
Zr205       O214   2.385       .  S
Zr205       O215   2.410       .  S
Zr205       O216   2.401       .  S
O206        H262   0.991       .  S
O206        H270   0.990       .  S
O207        C227   1.284       .  A
O208        C229   1.284       .  A
O209       Zr219   2.426       .  S
O209        C228   1.282       .  A
O210       Zr218   2.440       .  S
O210        C229   1.284       .  A
O211        C228   1.285       .  A
O212       Zr220   2.373       .  S
O212        C227   1.270       .  A
O213       Zr218   2.396       .  S
O213       Zr220   2.392       .  S
O214       Zr219   2.391       .  S
O214       Zr220   2.380       .  S
O214        H249   0.965       .  S
O215       Zr218   2.397       .  S
O215       Zr235   2.388       .  S
O215        H252   0.965       .  S
O216       Zr219   2.387       .  S
O216       Zr235   2.391       .  S
Zr217       O242   2.443   1_554  S
Zr217       O236   2.436   1_554  S
Zr217       O244   2.449   1_554  S
Zr217       O232   2.440   1_554  S
Zr217       O223   2.398       .  S
Zr217       O224   2.406       .  S
Zr217       O225   2.387       .  S
Zr217       O226   2.387       .  S
Zr218       O237   2.437       .  S
Zr218       O230   2.435       .  S
Zr218       O231   2.426       .  S
Zr218       O224   2.404       .  S
Zr218       O225   2.398       .  S
Zr219       O221   2.435       .  S
Zr219       O243   2.440       .  S
Zr219       O245   2.412       .  S
Zr219       O223   2.395       .  S
Zr219       O226   2.398       .  S
Zr220       O246   2.435       .  S
Zr220       O247   2.435       .  S
Zr220       O222   2.436       .  S
Zr220       O223   2.378       .  S
Zr220       O224   2.369       .  S
O221        H258   0.990       .  S
O222        H253   0.991       .  S
O222        H267   0.989       .  S
O224        H250   0.965       .  S
O225       Zr235   2.380       .  S
O226       Zr235   2.380       .  S
O226        H251   0.967       .  S
C227        C966   1.417       .  S
C228        C993   1.438       .  S
C229        C974   1.444       .  S
O230        H266   0.990       .  S
O231        C233   1.283   1_554  A
O232        C233   1.284       .  A
C233        C961   1.430       .  S
O234       Zr235   2.440       .  S
O234        H263   0.990       .  S
Zr235       O238   2.438       .  S
Zr235       O239   2.439       .  S
Zr235       O240   2.410       .  S
O236        C241   1.281   1_556  A
O237        H254   0.990       .  S
O237        H269   0.991       .  S
O238        H255   0.990       .  S
O239        H259   0.990       .  S
O239        H268   0.990       .  S
O240        C241   1.278       .  A
C241       C1005   1.431   1_554  S
O242        H261   0.990       .  S
O242        H265   0.991       .  S
O243        H257   0.990       .  S
O243        H264   0.990       .  S
O244        C248   1.284       .  A
O245        C248   1.280   1_554  A
O246        H256   0.990       .  S
O247        H260   0.990   1_554  S
C248        C964   1.431       .  S
Zr271       O272   2.443   1_554  S
Zr271       O273   2.438   1_554  S
Zr271       O274   2.443   1_554  S
Zr271       O277   2.439   1_554  S
Zr271       O279   2.387       .  S
Zr271       O280   2.388       .  S
Zr271       O281   2.406       .  S
Zr271       O282   2.397       .  S
O272        H328   0.990       .  S
O272        H336   0.991       .  S
O273        C293   1.281   1_556  A
O274        C295   1.282       .  A
O275       Zr285   2.427       .  S
O275        C294   1.283   1_554  A
O276       Zr284   2.415       .  S
O276        C295   1.280   1_554  A
O277        C294   1.283       .  A
O278       Zr286   2.413       .  S
O278        C293   1.278       .  A
O279       Zr284   2.406       .  S
O279       Zr286   2.383       .  S
O280       Zr285   2.395       .  S
O280       Zr286   2.376       .  S
O280        H315   0.966       .  S
O281       Zr284   2.406       .  S
O281       Zr301   2.370       .  S
O281        H318   0.965       .  S
O282       Zr285   2.391       .  S
O282       Zr301   2.376       .  S
Zr283       O308   2.442       .  S
Zr283       O302   2.440       .  S
Zr283       O310   2.444       .  S
Zr283       O298   2.458       .  S
Zr283       O289   2.401       .  S
Zr283       O290   2.408       .  S
Zr283       O291   2.380       .  S
Zr283       O292   2.386       .  S
Zr284       O303   2.438       .  S
Zr284       O296   2.434       .  S
Zr284       O297   2.437       .  S
Zr284       O290   2.401       .  S
Zr284       O291   2.391       .  S
Zr285       O287   2.436       .  S
Zr285       O309   2.437       .  S
Zr285       O311   2.430       .  S
Zr285       O289   2.389       .  S
Zr285       O292   2.390       .  S
Zr286       O312   2.437       .  S
Zr286       O313   2.436       .  S
Zr286       O288   2.434       .  S
Zr286       O289   2.390       .  S
Zr286       O290   2.388       .  S
O287        H324   0.990       .  S
O288        H319   0.990       .  S
O288        H333   0.990       .  S
O290        H316   0.964       .  S
O291       Zr301   2.388       .  S
O292       Zr301   2.384       .  S
O292        H317   0.966       .  S
C293       C1001   1.434   1_554  S
C294        C956   1.434       .  S
C295        C957   1.425       .  S
O296        H332   0.990       .  S
O297        C299   1.283       .  A
O298        C299   1.286       .  A
C299        C981   1.444       .  S
O300       Zr301   2.439       .  S
O300        H329   0.990       .  S
Zr301       O304   2.438       .  S
Zr301       O305   2.439       .  S
Zr301       O306   2.373       .  S
O302        C307   1.283       .  A
O303        H320   0.990       .  S
O303        H335   0.990       .  S
O304        H321   0.990       .  S
O305        H325   0.990       .  S
O305        H334   0.990       .  S
O306        C307   1.270       .  A
C307        C959   1.414       .  S
O308        H327   0.991       .  S
O308        H331   0.990       .  S
O309        H323   0.990       .  S
O309        H330   0.990       .  S
O310        C314   1.285       .  A
O311        C314   1.282       .  A
O312        H322   0.990       .  S
O313        H326   0.990       .  S
C314        C970   1.441       .  S
Zr337       O338   2.443       .  S
Zr337       O339   2.438       .  S
Zr337       O340   2.459       .  S
Zr337       O343   2.440       .  S
Zr337       O345   2.381       .  S
Zr337       O346   2.387       .  S
Zr337       O347   2.410       .  S
Zr337       O348   2.403       .  S
O338        H394   0.991       .  S
O338        H402   0.990       .  S
O339        C359   1.282       .  A
O340        C361   1.286       .  A
O341       Zr351   2.426       .  S
O341        C360   1.282       .  A
O342       Zr350   2.441       .  S
O342        C361   1.284       .  A
O343        C360   1.284       .  A
O344       Zr352   2.373       .  S
O344        C359   1.270       .  A
O345       Zr350   2.397       .  S
O345       Zr352   2.391       .  S
O346       Zr351   2.390       .  S
O346       Zr352   2.380       .  S
O346        H381   0.966       .  S
O347       Zr350   2.400       .  S
O347       Zr367   2.390       .  S
O347        H384   0.965       .  S
O348       Zr351   2.387       .  S
O348       Zr367   2.393       .  S
Zr349       O374   2.442       .  S
Zr349       O368   2.438       .  S
Zr349       O376   2.444       .  S
Zr349       O364   2.439       .  S
Zr349       O355   2.398       .  S
Zr349       O356   2.404       .  S
Zr349       O357   2.383       .  S
Zr349       O358   2.386       .  S
Zr350       O369   2.436       .  S
Zr350       O362   2.435       .  S
Zr350       O363   2.430       .  S
Zr350       O356   2.399       .  S
Zr350       O357   2.397       .  S
Zr351       O353   2.436       .  S
Zr351       O375   2.440       .  S
Zr351       O377   2.416       .  S
Zr351       O355   2.392       .  S
Zr351       O358   2.395       .  S
Zr352       O378   2.437       .  S
Zr352       O379   2.434       .  S
Zr352       O354   2.436       .  S
Zr352       O355   2.375       .  S
Zr352       O356   2.369       .  S
O353        H390   0.990       .  S
O354        H385   0.990       .  S
O354        H399   0.990       .  S
O356        H382   0.965       .  S
O357       Zr367   2.379       .  S
O358       Zr367   2.380       .  S
O358        H383   0.966       .  S
C359        C951   1.412       .  S
C360        C976   1.435       .  S
C361        C971   1.446       .  S
O362        H398   0.990       .  S
O363        C365   1.284       .  A
O364        C365   1.284       .  A
C365        C950   1.431       .  S
O366       Zr367   2.440       .  S
O366        H395   0.990       .  S
Zr367       O370   2.437       .  S
Zr367       O371   2.440       .  S
Zr367       O372   2.414       .  S
O368        C373   1.282       .  A
O369        H386   0.990       .  S
O369        H401   0.990       .  S
O370        H387   0.990       .  S
O371        H391   0.990       .  S
O371        H400   0.989       .  S
O372        C373   1.279       .  A
C373       C1013   1.434       .  S
O374        H393   0.990       .  S
O374        H397   0.991       .  S
O375        H389   0.990       .  S
O375        H396   0.990       .  S
O376        C380   1.283       .  A
O377        C380   1.281       .  A
O378        H388   0.990       .  S
O379        H392   0.990       .  S
C380        C954   1.431       .  S
Zr403       O404   2.443       .  S
Zr403       O405   2.438       .  S
Zr403       O406   2.451       .  S
Zr403       O409   2.446       .  S
Zr403       O411   2.388       .  S
Zr403       O412   2.387       .  S
Zr403       O413   2.407       .  S
Zr403       O414   2.395       .  S
O404        H460   0.990       .  S
O404        H468   0.991       .  S
O405        C425   1.281       .  A
O406        C427   1.284       .  A
O407       Zr417   2.418       .  S
O407        C426   1.281       .  A
O408       Zr416   2.422       .  S
O408        C427   1.281       .  A
O409        C426   1.285       .  A
O410       Zr418   2.406       .  S
O410        C425   1.277       .  A
O411       Zr416   2.404       .  S
O411       Zr418   2.381       .  S
O412       Zr417   2.397       .  S
O412       Zr418   2.376       .  S
O412        H447   0.965       .  S
O413       Zr416   2.409       .  S
O413       Zr433   2.374       .  S
O413        H450   0.965       .  S
O414       Zr417   2.392       .  S
O414       Zr433   2.376       .  S
Zr415       O440   2.442       .  S
Zr415       O434   2.440       .  S
Zr415       O442   2.445       .  S
Zr415       O430   2.445       .  S
Zr415       O421   2.399       .  S
Zr415       O422   2.411       .  S
Zr415       O423   2.380       .  S
Zr415       O424   2.381       .  S
Zr416       O435   2.435       .  S
Zr416       O428   2.436       .  S
Zr416       O429   2.449       .  S
Zr416       O422   2.401       .  S
Zr416       O423   2.393       .  S
Zr417       O419   2.435       .  S
Zr417       O441   2.438       .  S
Zr417       O443   2.430       .  S
Zr417       O421   2.387       .  S
Zr417       O424   2.389       .  S
Zr418       O444   2.435       .  S
Zr418       O445   2.435       .  S
Zr418       O420   2.438       .  S
Zr418       O421   2.392       .  S
Zr418       O422   2.384       .  S
O419        H456   0.990       .  S
O420        H451   0.990       .  S
O420        H465   0.990       .  S
O422        H448   0.964       .  S
O423       Zr433   2.389       .  S
O424       Zr433   2.387       .  S
O424        H449   0.965       .  S
C425       C1012   1.430       .  S
C426        C948   1.433       .  S
C427        C945   1.431       .  S
O428        H464   0.990       .  S
O429        C431   1.286       .  A
O430        C431   1.283       .  A
C431        C995   1.444       .  S
O432       Zr433   2.440       .  S
O432        H461   0.990       .  S
Zr433       O436   2.438       .  S
Zr433       O437   2.441       .  S
Zr433       O438   2.373       .  S
O434        C439   1.283       .  A
O435        H452   0.991       .  S
O435        H467   0.990       .  S
O436        H453   0.990       .  S
O437        H457   0.990       .  S
O437        H466   0.990       .  S
O438        C439   1.270       .  A
C439        C943   1.416       .  S
O440        H459   0.991       .  S
O440        H463   0.990       .  S
O441        H455   0.990       .  S
O441        H462   0.990       .  S
O442        C446   1.285       .  A
O443        C446   1.282       .  A
O444        H454   0.990       .  S
O445        H458   0.990       .  S
C446        C967   1.441       .  S
Zr469       O470   2.442       .  S
Zr469       O471   2.439       .  S
Zr469       O472   2.453       .  S
Zr469       O475   2.444       .  S
Zr469       O477   2.382       .  S
Zr469       O478   2.385       .  S
Zr469       O479   2.410       .  S
Zr469       O480   2.403       .  S
O470        H526   0.991       .  S
O470        H534   0.990       .  S
O471        C491   1.282       .  A
O472        C493   1.285       .  A
O473       Zr483   2.434       .  S
O473        C492   1.283       .  A
O474       Zr482   2.441       .  S
O474        C493   1.284       .  A
O475        C492   1.284       .  A
O476       Zr484   2.379       .  S
O476        C491   1.271       .  A
O477       Zr482   2.400       .  S
O477       Zr484   2.391       .  S
O478       Zr483   2.393       .  S
O478       Zr484   2.380       .  S
O478        H513   0.966       .  S
O479       Zr482   2.397       .  S
O479       Zr499   2.389       .  S
O479        H516   0.964       .  S
O480       Zr483   2.387       .  S
O480       Zr499   2.393       .  S
Zr481       O506   2.443   1_554  S
Zr481       O500   2.433   1_554  S
Zr481       O508   2.442   1_554  S
Zr481       O496   2.435   1_554  S
Zr481       O487   2.400       .  S
Zr481       O488   2.406       .  S
Zr481       O489   2.385       .  S
Zr481       O490   2.387       .  S
Zr482       O501   2.434       .  S
Zr482       O494   2.434       .  S
Zr482       O495   2.425       .  S
Zr482       O488   2.403       .  S
Zr482       O489   2.394       .  S
Zr483       O485   2.436       .  S
Zr483       O507   2.438       .  S
Zr483       O509   2.415       .  S
Zr483       O487   2.399       .  S
Zr483       O490   2.396       .  S
Zr484       O510   2.435       .  S
Zr484       O511   2.436       .  S
Zr484       O486   2.437       .  S
Zr484       O487   2.381       .  S
Zr484       O488   2.367       .  S
O485        H522   0.990       .  S
O486        H517   0.990       .  S
O486        H531   0.990       .  S
O488        H514   0.964       .  S
O489       Zr499   2.379       .  S
O490       Zr499   2.379       .  S
O490        H515   0.967       .  S
C491        C941   1.417       .  S
C492        C978   1.442       .  S
C493        C989   1.445       .  S
O494        H530   0.990       .  S
O495        C497   1.283   1_554  A
O496        C497   1.283       .  A
C497        C938   1.427       .  S
O498       Zr499   2.439       .  S
O498        H527   0.990       .  S
Zr499       O502   2.438       .  S
Zr499       O503   2.437       .  S
Zr499       O504   2.412       .  S
O500        C505   1.280   1_556  A
O501        H518   0.990       .  S
O501        H533   0.990       .  S
O502        H519   0.990       .  S
O503        H523   0.990       .  S
O503        H532   0.990       .  S
O504        C505   1.278       .  A
C505       C1004   1.430   1_554  S
O506        H525   0.990       .  S
O506        H529   0.991       .  S
O507        H521   0.990       .  S
O507        H528   0.989       .  S
O508        C512   1.283       .  A
O509        C512   1.280   1_554  A
O510        H520   0.990       .  S
O511        H524   0.990   1_554  S
C512        C940   1.430       .  S
Zr535       O536   2.443       .  S
Zr535       O537   2.431       .  S
Zr535       O538   2.437       .  S
Zr535       O541   2.440       .  S
Zr535       O543   2.387       .  S
Zr535       O544   2.386       .  S
Zr535       O545   2.407       .  S
Zr535       O546   2.393       .  S
O536        H592   0.990       .  S
O536        H600   0.991       .  S
O537        C557   1.280       .  A
O538        C559   1.282       .  A
O539       Zr549   2.419       .  S
O539        C558   1.281       .  A
O540       Zr548   2.426       .  S
O540        C559   1.282       .  A
O541        C558   1.284       .  A
O542       Zr550   2.415       .  S
O542        C557   1.279       .  A
O543       Zr548   2.402       .  S
O543       Zr550   2.378       .  S
O544       Zr549   2.400       .  S
O544       Zr550   2.376       .  S
O544        H579   0.966       .  S
O545       Zr548   2.409       .  S
O545       Zr565   2.371       .  S
O545        H582   0.965       .  S
O546       Zr549   2.389       .  S
O546       Zr565   2.375       .  S
Zr547       O572   2.444       .  S
Zr547       O566   2.444       .  S
Zr547       O574   2.431       .  S
Zr547       O562   2.446       .  S
Zr547       O553   2.403       .  S
Zr547       O554   2.410       .  S
Zr547       O555   2.378       .  S
Zr547       O556   2.382       .  S
Zr548       O567   2.434       .  S
Zr548       O560   2.435       .  S
Zr548       O561   2.448       .  S
Zr548       O554   2.400       .  S
Zr548       O555   2.392       .  S
Zr549       O551   2.436       .  S
Zr549       O573   2.440       .  S
Zr549       O575   2.427       .  S
Zr549       O553   2.389       .  S
Zr549       O556   2.390       .  S
Zr550       O576   2.436       .  S
Zr550       O577   2.436       .  S
Zr550       O552   2.438       .  S
Zr550       O553   2.394       .  S
Zr550       O554   2.388       .  S
O551        H588   0.990       .  S
O552        H583   0.990       .  S
O552        H597   0.990       .  S
O554        H580   0.964       .  S
O555       Zr565   2.391       .  S
O556       Zr565   2.386       .  S
O556        H581   0.967       .  S
C557       C1008   1.431       .  S
C558        C934   1.430       .  S
C559        C931   1.427       .  S
O560        H596   0.990       .  S
O561        C563   1.286       .  A
O562        C563   1.283       .  A
C563        C979   1.444       .  S
O564       Zr565   2.440       .  S
O564        H593   0.990       .  S
Zr565       O568   2.437       .  S
Zr565       O569   2.440       .  S
Zr565       O570   2.370       .  S
O566        C571   1.284       .  A
O567        H584   0.991       .  S
O567        H599   0.990       .  S
O568        H585   0.990       .  S
O569        H589   0.990       .  S
O569        H598   0.990       .  S
O570        C571   1.269       .  A
C571        C935   1.416       .  S
O572        H591   0.991       .  S
O572        H595   0.990       .  S
O573        H587   0.990       .  S
O573        H594   0.990       .  S
O574        C578   1.282       .  A
O575        C578   1.282       .  A
O576        H586   0.990       .  S
O577        H590   0.990       .  S
C578        C984   1.433       .  S
Zr601       O602   2.442       .  S
Zr601       O603   2.439       .  S
Zr601       O604   2.443       .  S
Zr601       O607   2.437       .  S
Zr601       O609   2.380       .  S
Zr601       O610   2.383       .  S
Zr601       O611   2.409       .  S
Zr601       O612   2.400       .  S
O602        H658   0.990       .  S
O602        H666   0.990       .  S
O603        C623   1.283       .  A
O604        C625   1.282       .  A
O605       Zr615   2.435       .  S
O605        C624   1.283       .  A
O606       Zr614   2.444       .  S
O606        C625   1.285       .  A
O607        C624   1.283       .  A
O608       Zr616   2.379       .  S
O608        C623   1.271       .  A
O609       Zr614   2.396       .  S
O609       Zr616   2.392       .  S
O610       Zr615   2.390       .  S
O610       Zr616   2.380       .  S
O610        H645   0.965       .  S
O611       Zr614   2.400       .  S
O611       Zr631   2.391       .  S
O611        H648   0.964       .  S
O612       Zr615   2.387       .  S
O612       Zr631   2.391       .  S
Zr613       O638   2.443   1_554  S
Zr613       O632   2.434   1_554  S
Zr613       O640   2.442   1_554  S
Zr613       O628   2.435   1_554  S
Zr613       O619   2.397       .  S
Zr613       O620   2.406       .  S
Zr613       O621   2.384       .  S
Zr613       O622   2.387       .  S
Zr614       O633   2.437       .  S
Zr614       O626   2.436       .  S
Zr614       O627   2.428       .  S
Zr614       O620   2.404       .  S
Zr614       O621   2.398       .  S
Zr615       O617   2.435       .  S
Zr615       O639   2.439       .  S
Zr615       O641   2.417       .  S
Zr615       O619   2.395       .  S
Zr615       O622   2.402       .  S
Zr616       O642   2.437       .  S
Zr616       O643   2.436       .  S
Zr616       O618   2.437       .  S
Zr616       O619   2.378       .  S
Zr616       O620   2.369       .  S
O617        H654   0.990       .  S
O618        H649   0.990       .  S
O618        H663   0.990       .  S
O620        H646   0.964       .  S
O621       Zr631   2.380       .  S
O622       Zr631   2.380       .  S
O622        H647   0.966       .  S
C623        C930   1.417       .  S
C624        C986   1.439       .  S
C625        C998   1.442       .  S
O626        H662   0.990       .  S
O627        C629   1.283   1_554  A
O628        C629   1.283       .  A
C629        C926   1.428       .  S
O630       Zr631   2.439       .  S
O630        H659   0.990       .  S
Zr631       O634   2.439       .  S
Zr631       O635   2.438       .  S
Zr631       O636   2.407       .  S
O632        C637   1.280   1_556  A
O633        H650   0.990       .  S
O633        H665   0.990       .  S
O634        H651   0.990       .  S
O635        H655   0.990       .  S
O635        H664   0.990       .  S
O636        C637   1.277       .  A
C637        C999   1.429   1_554  S
O638        H657   0.991       .  S
O638        H661   0.990       .  S
O639        H653   0.990       .  S
O639        H660   0.990       .  S
O640        C644   1.282       .  A
O641        C644   1.280   1_554  A
O642        H652   0.990       .  S
O643        H656   0.990   1_554  S
C644        C928   1.432       .  S
Zr667       O668   2.443       .  S
Zr667       O669   2.437       .  S
Zr667       O670   2.443       .  S
Zr667       O673   2.440       .  S
Zr667       O675   2.385       .  S
Zr667       O676   2.388       .  S
Zr667       O677   2.411       .  S
Zr667       O678   2.397       .  S
O668        H724   0.990       .  S
O668        H732   0.991       .  S
O669        C689   1.281       .  A
O670        C691   1.283       .  A
O671       Zr681   2.415       .  S
O671        C690   1.280       .  A
O672       Zr680   2.425       .  S
O672        C691   1.282       .  A
O673        C690   1.284       .  A
O674       Zr682   2.409       .  S
O674        C689   1.277       .  A
O675       Zr680   2.402       .  S
O675       Zr682   2.382       .  S
O676       Zr681   2.401       .  S
O676       Zr682   2.375       .  S
O676        H711   0.965       .  S
O677       Zr680   2.405       .  S
O677       Zr697   2.369       .  S
O677        H714   0.965       .  S
O678       Zr681   2.389       .  S
O678       Zr697   2.378       .  S
Zr679       O704   2.443       .  S
Zr679       O698   2.437       .  S
Zr679       O706   2.440       .  S
Zr679       O694   2.448       .  S
Zr679       O685   2.398       .  S
Zr679       O686   2.408       .  S
Zr679       O687   2.380       .  S
Zr679       O688   2.383       .  S
Zr680       O699   2.436       .  S
Zr680       O692   2.435       .  S
Zr680       O693   2.441       .  S
Zr680       O686   2.401       .  S
Zr680       O687   2.393       .  S
Zr681       O683   2.436       .  S
Zr681       O705   2.438       .  S
Zr681       O707   2.429       .  S
Zr681       O685   2.387       .  S
Zr681       O688   2.384       .  S
Zr682       O708   2.435       .  S
Zr682       O709   2.436       .  S
Zr682       O684   2.436       .  S
Zr682       O685   2.387       .  S
Zr682       O686   2.389       .  S
O683        H720   0.990       .  S
O684        H715   0.990       .  S
O684        H729   0.990       .  S
O686        H712   0.965       .  S
O687       Zr697   2.388       .  S
O688       Zr697   2.384       .  S
O688        H713   0.966       .  S
C689       C1009   1.432       .  S
C690        C920   1.429       .  S
C691        C923   1.428       .  S
O692        H728   0.990       .  S
O693        C695   1.285       .  A
O694        C695   1.283       .  A
C695        C988   1.443       .  S
O696       Zr697   2.439       .  S
O696        H725   0.990       .  S
Zr697       O700   2.437       .  S
Zr697       O701   2.439       .  S
Zr697       O702   2.375       .  S
O698        C703   1.282       .  A
O699        H716   0.991       .  S
O699        H731   0.989       .  S
O700        H717   0.990       .  S
O701        H721   0.990       .  S
O701        H730   0.990       .  S
O702        C703   1.271       .  A
C703        C921   1.414       .  S
O704        H723   0.990       .  S
O704        H727   0.991       .  S
O705        H719   0.990       .  S
O705        H726   0.990       .  S
O706        C710   1.284       .  A
O707        C710   1.283       .  A
O708        H718   0.990       .  S
O709        H722   0.990       .  S
C710        C992   1.438       .  S
O733       Zr745   2.407       .  S
O733        C735   1.279       .  A
O734       Zr771   2.418   1_545  S
O734        C735   1.284       .  A
C735        C929   1.416       .  S
O736       Zr748   2.403       .  S
O736        C738   1.278       .  A
O737       Zr772   2.424   1_455  S
O737        C738   1.285       .  A
C738        C944   1.416       .  S
O739       Zr748   2.398       .  S
O739        C741   1.278       .  A
O740       Zr771   2.424   1_445  S
O740        C741   1.285       .  A
C741        C965   1.415       .  S
O742       Zr745   2.403       .  S
O742        C744   1.279       .  A
O743       Zr772   2.420       .  S
O743        C744   1.284       .  A
C744        C922   1.414       .  S
Zr745       O746   2.432       .  S
Zr745       O747   2.436       .  S
Zr745       O751   2.363       .  S
Zr745       O752   2.367       .  S
Zr745       O775   2.361   1_545  S
Zr745       O777   2.360   1_545  S
O746        H789   0.990       .  S
O747        H788   0.990       .  S
O747        H792   0.990       .  S
Zr748       O749   2.435       .  S
Zr748       O750   2.435       .  S
Zr748       O752   2.361   1_455  S
Zr748       O751   2.363   1_455  S
Zr748       O776   2.363       .  S
Zr748       O778   2.362       .  S
O749        H790   0.990       .  S
O749        H793   0.990       .  S
O750        H783   0.990       .  S
O751       Zr771   2.378   1_545  S
O752       Zr772   2.380       .  S
O752        H779   0.966       .  S
O753       Zr765   2.402       .  S
O753        C755   1.278       .  A
O754       Zr772   2.424   1_565  S
O754        C755   1.285       .  A
C755        C936   1.415       .  S
O756       Zr768   2.402       .  S
O756        C758   1.279       .  A
O757       Zr771   2.419   1_455  S
O757        C758   1.284       .  A
C758        C960   1.413       .  S
O759       Zr768   2.399       .  S
O759        C761   1.278       .  A
O760       Zr772   2.415   1_465  S
O760        C761   1.284       .  A
C761        C952   1.410       .  S
O762       Zr765   2.405       .  S
O762        C764   1.279       .  A
O763       Zr771   2.423       .  S
O763        C764   1.285       .  A
C764        C942   1.417       .  S
Zr765       O766   2.437       .  S
Zr765       O767   2.434       .  S
Zr765       O773   2.360       .  S
Zr765       O774   2.365       .  S
Zr765       O777   2.359       .  S
Zr765       O775   2.364       .  S
O766        H786   0.990       .  S
O766        H791   0.990       .  S
O767        H787   0.990       .  S
Zr768       O769   2.434       .  S
Zr768       O770   2.435       .  S
Zr768       O774   2.364   1_455  S
Zr768       O773   2.363   1_455  S
Zr768       O778   2.361   1_565  S
Zr768       O776   2.358   1_565  S
O769        H785   0.990       .  S
O770        H784   0.990       .  S
O770        H794   0.990       .  S
Zr771       O774   2.378       .  S
Zr771       O776   2.381   1_665  S
Zr771       O777   2.379       .  S
Zr772       O773   2.382   1_545  S
Zr772       O775   2.377   1_545  S
Zr772       O778   2.377   1_655  S
O773        H781   0.966       .  S
O776        H780   0.965       .  S
O777        H782   0.965       .  S
O795       Zr807   2.419       .  S
O795        C797   1.282       .  A
O796       Zr833   2.426       .  S
O796        C797   1.285       .  A
C797        C958   1.423       .  S
O798       Zr810   2.415       .  S
O798        C800   1.282       .  A
O799       Zr834   2.433   1_545  S
O799        C800   1.287       .  A
C800        C925   1.425       .  S
O801       Zr810   2.428       .  S
O801        C803   1.284       .  A
O802       Zr833   2.426   1_545  S
O802        C803   1.285       .  A
C803        C963   1.429       .  S
O804       Zr807   2.423       .  S
O804        C806   1.283       .  A
O805       Zr834   2.430       .  S
O805        C806   1.286       .  A
C806        C939   1.429       .  S
Zr807       O808   2.434       .  S
Zr807       O809   2.437       .  S
Zr807       O813   2.368       .  S
Zr807       O814   2.364       .  S
Zr807       O837   2.364       .  S
Zr807       O839   2.370       .  S
O808        H851   0.990       .  S
O809        H850   0.991       .  S
O809        H854   0.990       .  S
Zr810       O811   2.436       .  S
Zr810       O812   2.433       .  S
Zr810       O814   2.369   1_545  S
Zr810       O813   2.363   1_545  S
Zr810       O838   2.361       .  S
Zr810       O840   2.371       .  S
O811        H852   0.990       .  S
O811        H855   0.990       .  S
O812        H845   0.990       .  S
O813       Zr833   2.389       .  S
O814       Zr834   2.390       .  S
O814        H841   0.967       .  S
O815       Zr827   2.410       .  S
O815        C817   1.280       .  A
O816       Zr834   2.436       .  S
O816        C817   1.287       .  A
C817        C932   1.425       .  S
O818       Zr830   2.413       .  S
O818        C820   1.281       .  A
O819       Zr833   2.438   1_545  S
O819        C820   1.288       .  A
C820        C946   1.428       .  S
O821       Zr830   2.420       .  S
O821        C823   1.282       .  A
O822       Zr834   2.431   1_545  S
O822        C823   1.286       .  A
C823        C919   1.428       .  S
O824       Zr827   2.418       .  S
O824        C826   1.282       .  A
O825       Zr833   2.433       .  S
O825        C826   1.286       .  A
C826        C953   1.429       .  S
Zr827       O828   2.435       .  S
Zr827       O829   2.435       .  S
Zr827       O835   2.368       .  S
Zr827       O836   2.366       .  S
Zr827       O839   2.358       .  S
Zr827       O837   2.366       .  S
O828        H848   0.990       .  S
O828        H853   0.990       .  S
O829        H849   0.990       .  S
Zr830       O831   2.434       .  S
Zr830       O832   2.434       .  S
Zr830       O836   2.370   1_545  S
Zr830       O835   2.365   1_545  S
Zr830       O840   2.361       .  S
Zr830       O838   2.365       .  S
O831        H847   0.990       .  S
O832        H846   0.991       .  S
O832        H856   0.990       .  S
Zr833       O836   2.382       .  S
Zr833       O838   2.384   1_565  S
Zr833       O839   2.387       .  S
Zr834       O835   2.386       .  S
Zr834       O837   2.382       .  S
Zr834       O840   2.381   1_565  S
O835        H843   0.966       .  S
O838        H842   0.965       .  S
O839        H844   0.966       .  S
O857       Zr869   2.416       .  S
O857        C859   1.282       .  A
O858       Zr895   2.439   1_455  S
O858        C859   1.288       .  A
C859        C962   1.429       .  S
O860       Zr872   2.407       .  S
O860        C862   1.280       .  A
O861       Zr896   2.436       .  S
O861        C862   1.287       .  A
C862        C937   1.424       .  S
O863       Zr872   2.416       .  S
O863        C865   1.282       .  A
O864       Zr895   2.437       .  S
O864        C865   1.288       .  A
C865        C927   1.430       .  S
O866       Zr869   2.425       .  S
O866        C868   1.283       .  A
O867       Zr896   2.437   1_455  S
O867        C868   1.287       .  A
C868        C955   1.433       .  S
Zr869       O870   2.434       .  S
Zr869       O871   2.436       .  S
Zr869       O875   2.372       .  S
Zr869       O876   2.364       .  S
Zr869       O899   2.361       .  S
Zr869       O901   2.368       .  S
O870        H913   0.990       .  S
O871        H912   0.990       .  S
O871        H916   0.990       .  S
Zr872       O873   2.435       .  S
Zr872       O874   2.432       .  S
Zr872       O876   2.365   1_655  S
Zr872       O875   2.364   1_655  S
Zr872       O900   2.358       .  S
Zr872       O902   2.368       .  S
O873        H914   0.990       .  S
O873        H917   0.990       .  S
O874        H907   0.990       .  S
O875       Zr895   2.387   1_455  S
O876       Zr896   2.386   1_455  S
O876        H903   0.967       .  S
O877       Zr889   2.421       .  S
O877        C879   1.283       .  A
O878       Zr896   2.433   1_455  S
O878        C879   1.287       .  A
C879        C949   1.429       .  S
O880       Zr892   2.419       .  S
O880        C882   1.282       .  A
O881       Zr895   2.435       .  S
O881        C882   1.287       .  A
C882        C924   1.426       .  S
O883       Zr892   2.426       .  S
O883        C885   1.283       .  A
O884       Zr896   2.429       .  S
O884        C885   1.286       .  A
C885        C933   1.429       .  S
O886       Zr889   2.427       .  S
O886        C888   1.284       .  A
O887       Zr895   2.437   1_455  S
O887        C888   1.287       .  A
C888        C947   1.432       .  S
Zr889       O890   2.438       .  S
Zr889       O891   2.431       .  S
Zr889       O897   2.364   1_455  S
Zr889       O898   2.365   1_455  S
Zr889       O901   2.365       .  S
Zr889       O899   2.370       .  S
O890        H910   0.990       .  S
O890        H915   0.990       .  S
O891        H911   0.990       .  S
Zr892       O893   2.436       .  S
Zr892       O894   2.437       .  S
Zr892       O898   2.372       .  S
Zr892       O897   2.363       .  S
Zr892       O902   2.365       .  S
Zr892       O900   2.366       .  S
O893        H909   0.990       .  S
O894        H908   0.991       .  S
O894        H918   0.990       .  S
Zr895       O898   2.390       .  S
Zr895       O900   2.386       .  S
Zr895       O901   2.388   1_655  S
Zr896       O897   2.389       .  S
Zr896       O899   2.382   1_655  S
Zr896       O902   2.382       .  S
O897        H905   0.966       .  S
O900        H904   0.966       .  S
O901        H906   0.966       .  S
C919        C920   1.202       .  T
C921        C922   1.194       .  T
C923        C924   1.201       .  T
C925        C926   1.201       .  T
C927        C928   1.204       .  T
C929        C930   1.195       .  T
C931        C932   1.201       .  T
C933        C934   1.203       .  T
C935        C936   1.195       .  T
C937        C938   1.201       .  T
C939        C940   1.203       .  T
C941        C942   1.196       .  T
C943        C944   1.195       .  T
C945        C946   1.203       .  T
C947        C948   1.205       .  T
C949        C950   1.203       .  T
C951        C952   1.192       .  T
C953        C954   1.203       .  T
C955        C956   1.205       .  T
C957        C958   1.199       .  T
C959        C960   1.194       .  T
C961        C962   1.203       .  T
C963        C964   1.203       .  T
C965        C966   1.195       .  T
C967        C968   1.210       .  T
C969        C970   1.210       .  T
C971        C972   1.213       .  T
C973        C974   1.212       .  T
C975        C976   1.206       .  T
C977        C978   1.210       .  T
C979        C980   1.212       .  T
C981        C982   1.212       .  T
C983        C984   1.205       .  T
C985        C986   1.209       .  T
C987        C988   1.211       .  T
C989        C990   1.212       .  T
C991        C992   1.208       .  T
C993        C994   1.208       .  T
C995        C996   1.212       .  T
C997        C998   1.211       .  T
C999       C1000   1.203       .  T
C1001      C1002   1.206       .  T
C1003      C1004   1.204       .  T
C1005      C1006   1.204       .  T
C1007      C1008   1.204       .  T
C1009      C1010   1.205       .  T
C1011      C1012   1.204       .  T
C1013      C1014   1.206       .  T
