geometry optimzed in LAMMPS
_audit_creation_date              2020-11-30 
_audit_creation_method            'lammps2cif' 
_symmetry_space_group_name_H-M    'P1' 
_symmetry_Int_Tables_number       1 
_symmetry_cell_setting            triclinic 
loop_ 
_symmetry_equiv_pos_as_xyz 
  x,y,z 
_cell_length_a                    47.7761342219787 
_cell_length_b                    47.73679441818988 
_cell_length_c                    47.73042358831613 
_cell_angle_alpha                 90.31419498750586 
_cell_angle_beta                  89.93750611810026 
_cell_angle_gamma                 89.64630364333222 
loop_ 
_atom_site_label 
_atom_site_type_symbol 
_atom_site_fract_x 
_atom_site_fract_y 
_atom_site_fract_z 
_atom_site_charge 
C1          C  0.70233128  0.69899467  0.91798899     0.02860
C2          C  0.67745285  0.70978273  0.92950036    -0.13290
C3          C  0.66134634  0.69304876  0.94716916     0.00360
C4          C  0.66926424  0.66541619  0.95194375    -0.11820
C5          C  0.69532263  0.65523874  0.94278297     0.02850
C6          C  0.71191033  0.67225516  0.92564277    -0.11240
H7          H  0.67091934  0.73107748  0.92504351     0.08450
H8          H  0.65637024  0.65274081  0.96557816     0.05980
H9          H  0.73241421  0.66537626  0.91881854     0.05820
C10         C  0.88210792  0.69668899  0.73235965     0.02860
C11         C  0.89155730  0.67032577  0.74184956    -0.13290
C12         C  0.91076112  0.65454755  0.72573502     0.00360
C13         C  0.91992632  0.66526219  0.70012709    -0.11820
C14         C  0.91268384  0.69220749  0.69188403     0.02850
C15         C  0.89317845  0.70776410  0.70749198    -0.11240
H16         H  0.88477624  0.66289085  0.76209895     0.08450
H17         H  0.93516067  0.65362053  0.68775165     0.05980
H18         H  0.88706391  0.72849060  0.70056689     0.05820
C19         C  0.69701440  0.87724350  0.72852259     0.02860
C20         C  0.70822626  0.88539663  0.70262851    -0.13290
C21         C  0.69551378  0.90682776  0.68714567     0.00360
C22         C  0.67065776  0.91897928  0.69678814    -0.11820
C23         C  0.65943671  0.91145732  0.72264851     0.02850
C24         C  0.67271399  0.89068089  0.73876708    -0.11240
H25         H  0.72765065  0.87610000  0.69525960     0.08450
H26         H  0.66138127  0.93628940  0.68536260     0.05980
H27         H  0.66458240  0.88546612  0.75927680     0.05820
C28         C  0.74563607  0.78198163  0.81697759     0.02020
C29         C  0.75781375  0.75749355  0.82883252     0.02020
C30         C  0.78239475  0.74522320  0.81723124     0.02020
C31         C  0.79324817  0.75583551  0.79173606     0.02020
C32         C  0.78188524  0.78086367  0.78030116     0.02020
C33         C  0.75759550  0.79335153  0.79228389     0.02020
C34         C  0.36053505  0.38325782  0.93443147     0.02860
C35         C  0.34631132  0.36908599  0.91292069    -0.13290
C36         C  0.35615536  0.34316344  0.90292957     0.00360
C37         C  0.38082257  0.33152486  0.91411014    -0.11820
C38         C  0.39573902  0.34615691  0.93487453     0.02850
C39         C  0.38545469  0.37194434  0.94465373    -0.11240
H40         H  0.32659681  0.37732410  0.90519786     0.08450
H41         H  0.38753490  0.31078071  0.90759921     0.05980
H42         H  0.39586493  0.38219425  0.96204830     0.05820
C43         C  0.91406998  0.38924565  0.37837445     0.02860
C44         C  0.89550563  0.37452828  0.36048662    -0.13290
C45         C  0.88161398  0.35032711  0.36993833     0.00360
C46         C  0.88819725  0.33943500  0.39635810    -0.11820
C47         C  0.90733076  0.35314352  0.41386009     0.02850
C48         C  0.91868511  0.37863888  0.40542912    -0.11240
H49         H  0.89237034  0.38098506  0.33910190     0.08450
H50         H  0.87935361  0.31962083  0.40280352     0.05980
H51         H  0.93336753  0.38891556  0.41928755     0.05820
C52         C  0.38679907  0.90838075  0.38279937     0.02860
C53         C  0.37147191  0.88830281  0.36757195    -0.13290
C54         C  0.34626906  0.87748573  0.37827496     0.00360
C55         C  0.33580050  0.88797796  0.40391101    -0.11820
C56         C  0.35099050  0.90785016  0.41952550     0.02850
C57         C  0.37683621  0.91715996  0.40903763    -0.11240
H58         H  0.37864746  0.88184798  0.34696445     0.08450
H59         H  0.31505233  0.88198277  0.41062540     0.05980
H60         H  0.38781236  0.93368122  0.42006093     0.05820
C61         C  0.84575124  0.84853640  0.41507887     0.02860
C62         C  0.87076705  0.83732988  0.42593094    -0.13290
C63         C  0.88711428  0.85335578  0.44439629     0.00360
C64         C  0.87917043  0.88081183  0.45067757    -0.11820
C65         C  0.85292422  0.89141233  0.44254421     0.02850
C66         C  0.83617296  0.87483079  0.42472873    -0.11240
H67         H  0.87721815  0.81621118  0.42040396     0.08450
H68         H  0.89260251  0.89302591  0.46427842     0.05980
H69         H  0.81542888  0.88159756  0.41885710     0.05820
C70         C  0.88008610  0.84885753  0.66330560     0.02860
C71         C  0.86833662  0.83519980  0.68648945    -0.13290
C72         C  0.84415024  0.84607052  0.69944880     0.00360
C73         C  0.83240481  0.87130974  0.68982602    -0.11820
C74         C  0.84425302  0.88507191  0.66679068     0.02850
C75         C  0.86815958  0.87389166  0.65401758    -0.11240
H76         H  0.87737358  0.81577473  0.69394135     0.08450
H77         H  0.81342251  0.87942492  0.69937297     0.05980
H78         H  0.87641250  0.88376603  0.63535172     0.05820
C79         C  0.84926451  0.37354760  0.87361674     0.02860
C80         C  0.83695780  0.38405168  0.89824347    -0.13290
C81         C  0.84943820  0.40644919  0.91264640     0.00360
C82         C  0.87441680  0.41773629  0.90256921    -0.11820
C83         C  0.88651333  0.40741771  0.87793070     0.02850
C84         C  0.87443504  0.38471409  0.86403108    -0.11240
H85         H  0.81727658  0.37556002  0.90548578     0.08450
H86         H  0.88308971  0.43622791  0.91252076     0.05980
H87         H  0.88354121  0.37707485  0.84461575     0.05820
C88         C  0.88782166  0.62980902  0.87989073     0.02860
C89         C  0.87130608  0.64934317  0.86535468    -0.13290
C90         C  0.84599613  0.65921981  0.87695528     0.00360
C91         C  0.83700992  0.64873405  0.90297988    -0.11820
C92         C  0.85383674  0.62994225  0.91840126     0.02850
C93         C  0.87968152  0.62140460  0.90673448    -0.11240
H94         H  0.87775514  0.65628036  0.84476486     0.08450
H95         H  0.81656587  0.65472748  0.91056717     0.05980
H96         H  0.89303691  0.60684435  0.91790058     0.05820
C97         C  0.15461560  0.85112746  0.43339313     0.02860
C98         C  0.16301379  0.87792425  0.44132652    -0.13290
C99         C  0.18853992  0.88887692  0.43219999     0.00360
C100        C  0.20512325  0.87314248  0.41346596    -0.11820
C101        C  0.19615100  0.84661444  0.40427761     0.02850
C102        C  0.17098602  0.83552872  0.41452266    -0.11240
H103        H  0.15044500  0.88958167  0.45638396     0.08450
H104        H  0.22538876  0.88079534  0.40697031     0.05980
H105        H  0.16461998  0.81460149  0.40846111     0.05820
C106        C  0.18876481  0.88953908  0.66341226     0.02860
C107        C  0.16228370  0.87964750  0.65597993    -0.13290
C108        C  0.15323264  0.85332234  0.66451782     0.00360
C109        C  0.16975971  0.83795994  0.68353634    -0.11820
C110        C  0.19559901  0.84851980  0.69299364     0.02850
C111        C  0.20508637  0.87439388  0.68269345    -0.11240
H112        H  0.15007703  0.89112045  0.64066174     0.08450
H113        H  0.16306329  0.81734942  0.69005063     0.05980
H114        H  0.22566896  0.88188053  0.68845446     0.05820
O115        O  0.95875116  0.78020278  0.57781105    -0.80410
O116        O  0.06616146  0.79611521  0.52256475    -0.80430
O117        O  0.04862917  0.81472842  0.58421869    -0.80440
O118        O  0.99818571  0.81160040  0.51748370    -0.80380
O119        O  0.07911369  0.78203051  0.57494043    -0.80500
O120        O  0.96416803  0.78078358  0.52258283    -0.80420
O121        O  0.04188605  0.79535198  0.48311846    -0.80410
O122        O  0.98880438  0.81420740  0.58533019    -0.80440
C123        C  0.96426995  0.80440264  0.58757392     1.09280
C124        C  0.06364881  0.80273418  0.49635208     1.09170
C125        C  0.07341266  0.80518959  0.58644574     1.09310
C126        C  0.97272263  0.80450716  0.51418020     1.09180
O127        O  0.99177665  0.72663379  0.52319353    -0.80410
O128        O  0.05369266  0.72953225  0.57489035    -0.80480
O129        O  0.99188072  0.76141381  0.61285229    -0.80420
O130        O  0.05196206  0.74565334  0.50644473    -0.80400
O131        O  0.09011571  0.74579158  0.53288707    -0.80450
O132        O  0.98697448  0.72744129  0.58177369    -0.80420
O133        O  0.99990024  0.75847925  0.49181736    -0.80380
O134        O  0.04707216  0.76019865  0.60930759    -0.80450
Co135      Co  0.97813880  0.75389111  0.55145567     1.51530
Co136      Co  0.05637497  0.76084997  0.54754457     1.51690
Co137      Co  0.01904117  0.78759097  0.59496732     1.51570
Co138      Co  0.02594570  0.78043775  0.51582312     1.51470
O139        O  0.01666550  0.77095066  0.55558810    -1.42340
C140        C  0.98959210  0.73505694  0.49823287     1.09210
C141        C  0.05580614  0.73642630  0.60068777     1.09300
C142        C  0.98371596  0.73693746  0.60639801     1.09240
C143        C  0.07813596  0.73946098  0.51012418     1.09210
C144        C  0.34917874  0.65724543  0.93884467     0.02860
C145        C  0.33313927  0.67100004  0.91839130    -0.13290
C146        C  0.34213390  0.69675124  0.90745894     0.00360
C147        C  0.36668493  0.70905965  0.91796908    -0.11820
C148        C  0.38221500  0.69547575  0.93892468     0.02850
C149        C  0.37377283  0.66934494  0.94850123    -0.11240
H150        H  0.31338257  0.66218272  0.91169285     0.08450
H151        H  0.37328151  0.72931787  0.91034835     0.05980
H152        H  0.38500862  0.65956525  0.96565633     0.05820
C153        C  0.37957238  0.91288893  0.71116263     0.02860
C154        C  0.36897464  0.92355024  0.68617573    -0.13290
C155        C  0.34792228  0.90961686  0.67106517     0.00360
C156        C  0.33418342  0.88719368  0.68499042    -0.11820
C157        C  0.34328754  0.87719017  0.71117738     0.02850
C158        C  0.36708486  0.88954661  0.72332845    -0.11240
H159        H  0.37684595  0.94350107  0.67939571     0.08450
H160        H  0.31548119  0.87804323  0.67665481     0.05980
H161        H  0.37534803  0.88182450  0.74296572     0.05820
C162        C  0.26396465  0.78252965  0.77000719     0.02020
C163        C  0.29003916  0.79219761  0.78119114     0.02020
C164        C  0.29874979  0.78118316  0.80782148     0.02020
C165        C  0.28471852  0.75768855  0.81958595     0.02020
C166        C  0.26056550  0.74664453  0.80671374     0.02020
C167        C  0.25082952  0.75845140  0.78137601     0.02020
C168        C  0.16224817  0.70007498  0.72336995     0.02860
C169        C  0.14791665  0.70944169  0.69935378    -0.13290
C170        C  0.12688642  0.69271304  0.68733764     0.00360
C171        C  0.12055811  0.66690798  0.69916543    -0.11820
C172        C  0.13415021  0.65797449  0.72341223     0.02850
C173        C  0.15525939  0.67426933  0.73531981    -0.11240
H174        H  0.15252897  0.72979837  0.69061209     0.08450
H175        H  0.10353784  0.65458898  0.69061292     0.05980
H176        H  0.16539297  0.66747981  0.75444886     0.05820
O177        O  0.99361024  0.58077347  0.80976885    -0.80410
O178        O  0.04548198  0.46393096  0.81685994    -0.80430
O179        O  0.95287286  0.50338011  0.81630544    -0.80440
O180        O  0.05709665  0.55501200  0.84281595    -0.80380
O181        O  0.99153560  0.48153392  0.82926650    -0.80500
O182        O  0.05092712  0.58682369  0.81061011    -0.80420
O183        O  0.05380090  0.49795596  0.84504110    -0.80410
O184        O  0.98619497  0.54419627  0.83690981    -0.80440
C185        C  0.98198337  0.56976700  0.83110421     1.09280
C186        C  0.05785048  0.47282086  0.83824722     1.09170
C187        C  0.96450203  0.48371309  0.82954690     1.09310
C188        C  0.06109560  0.57955566  0.83403573     1.09180
O189        O  0.05523387  0.55709181  0.75805717    -0.80410
O190        O  0.00411994  0.45227835  0.78359484    -0.80480
O191        O  0.96439321  0.54485438  0.78265219    -0.80420
O192        O  0.08130815  0.49383633  0.79049455    -0.80400
O193        O  0.04496373  0.48595368  0.76309116    -0.80450
O194        O  0.99871750  0.55289468  0.75510614    -0.80420
O195        O  0.08694222  0.55131089  0.79063944    -0.80380
O196        O  0.98173628  0.49026240  0.77032644    -0.80450
Co197      Co  0.02464569  0.56701184  0.78377898     1.51530
Co198      Co  0.01841787  0.48678730  0.79486491     1.51690
Co199      Co  0.98714470  0.51774580  0.80492280     1.51570
Co200      Co  0.06734603  0.52455035  0.81679131     1.51470
O201        O  0.02803362  0.52764471  0.80009691    -1.42340
C202        C  0.07956462  0.56131971  0.76717585     1.09210
C203        C  0.98480239  0.46320014  0.76936291     1.09300
C204        C  0.97355171  0.55705348  0.76133528     1.09240
C205        C  0.07049430  0.48169171  0.76925346     1.09210
C206        C  0.15469538  0.40906914  0.87233880     0.02860
C207        C  0.16452357  0.41904847  0.89805134    -0.13290
C208        C  0.19147943  0.41292042  0.90687790     0.00360
C209        C  0.20785642  0.39358495  0.89202060    -0.11820
C210        C  0.19738338  0.38121085  0.86750125     0.02850
C211        C  0.17108132  0.38969630  0.85700839    -0.11240
H212        H  0.15231881  0.43443382  0.90971810     0.08450
H213        H  0.22884576  0.38865242  0.89914173     0.05980
H214        H  0.16398447  0.38191255  0.83691187     0.05820
C215        C  0.19177655  0.63839291  0.91647794     0.02860
C216        C  0.20756836  0.65776620  0.90075503    -0.13290
C217        C  0.19716169  0.66832792  0.87516130     0.00360
C218        C  0.17167256  0.65816180  0.86472605    -0.13020
C219        C  0.15630306  0.63845331  0.87996949     0.02850
C220        C  0.16560725  0.63018367  0.90647126    -0.11240
H221        H  0.22827914  0.66365406  0.90777942     0.08450
H222        H  0.16441309  0.66472083  0.84426382     0.05980
H223        H  0.15369578  0.61483490  0.91804555     0.05820
C224        C  0.37144190  0.84644874  0.87967601     0.02860
C225        C  0.38350746  0.87019916  0.86720395    -0.13290
C226        C  0.40619437  0.88367945  0.88014397     0.00360
C227        C  0.41651422  0.87349646  0.90538187    -0.11820
C228        C  0.40527441  0.84963392  0.91763561     0.02850
C229        C  0.38204660  0.83664355  0.90526632    -0.11240
H230        H  0.37630169  0.87717411  0.84688091     0.08450
H231        H  0.43519535  0.88282035  0.91426696     0.05980
H232        H  0.37323421  0.81804824  0.91458976     0.05820
C233        C  0.62835222  0.85270399  0.91747202     0.02860
C234        C  0.65018347  0.83729540  0.90474208    -0.13290
C235        C  0.66371931  0.84773767  0.88075312     0.00360
C236        C  0.65515075  0.87368575  0.86967328    -0.11820
C237        C  0.63209006  0.88830357  0.88116036     0.02850
C238        C  0.61964163  0.87797214  0.90552475    -0.11240
H239        H  0.65572640  0.81675554  0.91259753     0.08450
H240        H  0.66592134  0.88182923  0.85157305     0.05980
H241        H  0.60164540  0.88876130  0.91441104     0.05820
C242        C  0.13003195  0.66033884  0.37748182     0.02860
C243        C  0.12282554  0.67134575  0.40367122    -0.13290
C244        C  0.13606648  0.69511413  0.41415612     0.00360
C245        C  0.15774566  0.70740604  0.39890181    -0.11820
C246        C  0.16561903  0.69641578  0.37269671     0.02850
C247        C  0.15144947  0.67295319  0.36177853    -0.11240
H248        H  0.10558265  0.66229079  0.41526290     0.08450
H249        H  0.16786740  0.72603187  0.40697114     0.05980
H250        H  0.15654176  0.66508357  0.34104665     0.05820
C251        C  0.26001934  0.78371852  0.32192658     0.02020
C252        C  0.28508798  0.79538490  0.31119581     0.02020
C253        C  0.29815993  0.78263835  0.28749784     0.02020
C254        C  0.28727650  0.75727205  0.27625253     0.02020
C255        C  0.26264798  0.74524003  0.28759047     0.02020
C256        C  0.24932183  0.75828257  0.31088064     0.02020
C257        C  0.34883393  0.65667953  0.15856086     0.02860
C258        C  0.33590123  0.67234566  0.17982245    -0.13290
C259        C  0.34722629  0.69806765  0.18825707     0.00360
C260        C  0.37156858  0.70806677  0.17509641    -0.11820
C261        C  0.38460127  0.69202423  0.15389484     0.02850
C262        C  0.37335623  0.66625604  0.14610592    -0.11240
H263        H  0.31655899  0.66503834  0.18907223     0.08450
H264        H  0.37985769  0.72839233  0.18078306     0.05980
H265        H  0.38265041  0.65448715  0.12891401     0.05820
O266        O  0.26209640  0.49323192  0.98338097    -0.80410
O267        O  0.24634783  0.54879077  0.08971388    -0.80430
O268        O  0.22872609  0.48906903  0.07351880    -0.80440
O269        O  0.23167964  0.55485362  0.02012732    -0.80380
O270        O  0.26157694  0.49731069  0.10348563    -0.80500
O271        O  0.26381264  0.54857709  0.98764458    -0.80420
O272        O  0.24605062  0.58826434  0.06546530    -0.80410
O273        O  0.22886252  0.48827691  0.01510833    -0.80440
C274        C  0.23749518  0.48559309  0.99019942     1.09280
C275        C  0.23921456  0.57489692  0.08734864     1.09170
C276        C  0.23820942  0.48668021  0.09805381     1.09310
C277        C  0.24035791  0.55861066  0.99504070     1.09180
O278        O  0.31715915  0.54790660  0.01408355    -0.80410
O279        O  0.31355667  0.49665354  0.07866024    -0.80480
O280        O  0.28097903  0.45848808  0.01643833    -0.80420
O281        O  0.29587547  0.56475039  0.07623920    -0.80400
O282        O  0.29598746  0.53862556  0.11450134    -0.80450
O283        O  0.31548129  0.48805401  0.01067540    -0.80420
O284        O  0.28453490  0.57828926  0.02490174    -0.80380
O285        O  0.28343139  0.46199478  0.07198450    -0.80450
Co286      Co  0.28954449  0.51914799  0.00182482     1.51530
Co287      Co  0.28213965  0.52409470  0.08051366     1.51690
Co288      Co  0.25566057  0.47715306  0.04412543     1.51570
Co289      Co  0.26164301  0.55527628  0.04968932     1.51470
O290        O  0.27259847  0.51584981  0.04080676    -1.42340
C291        C  0.30794443  0.57299416  0.01395624     1.09210
C292        C  0.30669744  0.47099321  0.08141046     1.09300
C293        C  0.30532032  0.46375725  0.00739882     1.09240
C294        C  0.30210300  0.56127251  0.10244347     1.09210
O295        O  0.98975901  0.50220705  0.34346120    -0.80410
O296        O  0.05467908  0.55047687  0.34481806    -0.80430
O297        O  0.05040379  0.46035781  0.31058927    -0.80440
O298        O  0.99274769  0.57004882  0.32305902    -0.80380
O299        O  0.05781197  0.49081893  0.34448963    -0.80500
O300        O  0.95447307  0.54421831  0.32534025    -0.80420
O301        O  0.04510208  0.58112994  0.31198026    -0.80410
O302        O  0.99483725  0.46623392  0.31412688    -0.80440
C303        C  0.98613601  0.47647311  0.33734875     1.09280
C304        C  0.05552636  0.57540064  0.33571399     1.09170
C305        C  0.05966854  0.46603350  0.33477148     1.09310
C306        C  0.96677412  0.56711479  0.33033822     1.09180
O307        O  0.97801960  0.55102451  0.27466785    -0.80410
O308        O  0.08429972  0.49406190  0.29100620    -0.80480
O309        O  0.99407128  0.49140458  0.25855559    -0.80420
O310        O  0.04804830  0.55385359  0.25927415    -0.80400
O311        O  0.08140821  0.54964766  0.29107477    -0.80450
O312        O  0.96351055  0.50072097  0.29110520    -0.80420
O313        O  0.00422151  0.58908494  0.27077912    -0.80380
O314        O  0.05237670  0.48779175  0.25806450    -0.80450
Co315      Co  0.98762011  0.52794229  0.31109679     1.51530
Co316      Co  0.06663212  0.52114525  0.31778860     1.51690
Co317      Co  0.02301783  0.47916490  0.28549275     1.51570
Co318      Co  0.01923594  0.55744566  0.28926387     1.51470
O319        O  0.02722749  0.51832880  0.30154996    -1.42340
C320        C  0.98157270  0.57629139  0.26568180     1.09210
C321        C  0.07732574  0.48551762  0.26672312     1.09300
C322        C  0.96926749  0.49014380  0.26755157     1.09240
C323        C  0.07320669  0.55780763  0.26714797     1.09210
C324        C  0.19883308  0.41332862  0.18400705     0.02860
C325        C  0.17368753  0.42426705  0.19407368    -0.13290
C326        C  0.16351201  0.41630884  0.22006254     0.00360
C327        C  0.17743648  0.39575379  0.23558395    -0.11820
C328        C  0.20223900  0.38373779  0.22516431     0.02850
C329        C  0.21307233  0.39265063  0.19932012    -0.11240
H330        H  0.16339434  0.44120449  0.18292852     0.08450
H331        H  0.16966009  0.38995305  0.25607853     0.05980
H332        H  0.23274930  0.38420113  0.19163267     0.05820
C333        C  0.85083905  0.41418193  0.18288610     0.02860
C334        C  0.87250261  0.42890252  0.19572906    -0.13290
C335        C  0.88098707  0.42240865  0.22286066     0.00360
C336        C  0.86791418  0.40063413  0.23745333    -0.11820
C337        C  0.84659084  0.38511134  0.22444804     0.02850
C338        C  0.83855444  0.39162168  0.19694673    -0.11240
H339        H  0.88202052  0.44646009  0.18507101     0.08450
H340        H  0.87402707  0.39604022  0.25880612     0.05980
H341        H  0.82200901  0.37982152  0.18698571     0.05820
C342        C  0.88637227  0.63591267  0.22082792     0.02860
C343        C  0.87652804  0.62829309  0.19429263    -0.13290
C344        C  0.85607494  0.64434746  0.18039512     0.00360
C345        C  0.84387665  0.66719466  0.19522925    -0.11820
C346        C  0.85146483  0.67303720  0.22312914     0.02850
C347        C  0.87361399  0.65814402  0.23534472    -0.11240
H348        H  0.88482790  0.60936003  0.18483320     0.08450
H349        H  0.82780104  0.68004177  0.18575023     0.05980
H350        H  0.88065871  0.66371771  0.25619829     0.05820
O351        O  0.81037673  0.54350888  0.01610438    -0.80410
O352        O  0.81669552  0.50014165  0.08634710    -0.80430
O353        O  0.78010266  0.58833630  0.07991862    -0.80440
O354        O  0.80146206  0.48111460  0.02013644    -0.80380
O355        O  0.81323610  0.55798665  0.09046278    -0.80500
O356        O  0.78893862  0.50271944  0.98154149    -0.80420
O357        O  0.78835277  0.46685739  0.07470735    -0.80410
O358        O  0.78336146  0.58063367  0.02303024    -0.80440
C359        C  0.80541804  0.56934657  0.01233361     1.09280
C360        C  0.80989916  0.47475705  0.08759456     1.09170
C361        C  0.80374321  0.58284180  0.09096356     1.09310
C362        C  0.80156934  0.48260588  0.99301008     1.09180
O363        O  0.74275392  0.49226605  0.00957309    -0.80410
O364        O  0.75879697  0.55362836  0.11527374    -0.80480
O365        O  0.72858827  0.55176706  0.02562852    -0.80420
O366        O  0.73379987  0.49014298  0.07135288    -0.80400
O367        O  0.75971274  0.49650822  0.10899099    -0.80450
O368        O  0.75740357  0.54600922  0.99210706    -0.80420
O369        O  0.75489797  0.45419269  0.03229633    -0.80380
O370        O  0.72786383  0.55777917  0.08189734    -0.80450
Co371      Co  0.77792454  0.51831177  0.01578366     1.51530
Co372      Co  0.78679777  0.52696182  0.09748209     1.51690
Co373      Co  0.75534828  0.56740677  0.05264813     1.51570
Co374      Co  0.76680799  0.48874006  0.04649673     1.51470
O375        O  0.77304838  0.52920722  0.05670105    -1.42340
C376        C  0.74111498  0.46533567  0.01282098     1.09210
C377        C  0.73490713  0.56192383  0.10703147     1.09300
C378        C  0.73518363  0.55700699  0.00086877     1.09240
C379        C  0.73856361  0.48554598  0.09694708     1.09210
C380        C  0.69377386  0.91597763  0.41548589     0.02860
C381        C  0.66678342  0.92322934  0.40671149    -0.13290
C382        C  0.65669438  0.91477509  0.38046667     0.00360
C383        C  0.67289282  0.89619212  0.36413629    -0.11820
C384        C  0.69879282  0.88632652  0.37416911     0.02850
C385        C  0.70947159  0.89670625  0.39958435    -0.11240
H386        H  0.65445847  0.93764334  0.41939765     0.08450
H387        H  0.66594246  0.88993022  0.34347814     0.05980
H388        H  0.73006504  0.89021910  0.40661343     0.05820
C389        C  0.91293099  0.69364686  0.41518137     0.02860
C390        C  0.91731492  0.66602381  0.40652657    -0.13290
C391        C  0.90345340  0.65548185  0.38310349     0.00360
C392        C  0.88378644  0.67215561  0.36918255    -0.11820
C393        C  0.87792248  0.69944536  0.37859993     0.02850
C394        C  0.89302324  0.71044736  0.40141655    -0.11240
H395        H  0.93383331  0.65372230  0.41617496     0.08450
H396        H  0.87435061  0.66449966  0.34998252     0.05980
H397        H  0.88986825  0.73202591  0.40789651     0.05820
C398        C  0.79885595  0.76523467  0.31452070     0.02020
C399        C  0.78574229  0.78885223  0.32726773     0.02020
C400        C  0.76134089  0.80047534  0.31482709     0.02020
C401        C  0.74978469  0.78813323  0.29038032     0.02020
C402        C  0.76247332  0.76401781  0.27847582     0.02020
C403        C  0.78807351  0.75393397  0.28930418     0.02020
C404        C  0.70157048  0.69983622  0.19534848     0.02860
C405        C  0.70961555  0.67312931  0.18525753    -0.13290
C406        C  0.69177736  0.65818123  0.16710793     0.00360
C407        C  0.66549851  0.66944225  0.16064638    -0.11820
C408        C  0.65826763  0.69664915  0.16877551     0.02850
C409        C  0.67604631  0.71164409  0.18663857    -0.11240
H410        H  0.72984110  0.66445840  0.19087182     0.08450
H411        H  0.65131937  0.65768517  0.14740633     0.05980
H412        H  0.67009856  0.73246684  0.19368188     0.05820
O413        O  0.55582444  0.81226680  0.02896948    -0.80410
O414        O  0.49112664  0.81554395  0.08047122    -0.80430
O415        O  0.49514297  0.78223430  0.98991925    -0.80440
O416        O  0.55143581  0.79538490  0.09710509    -0.80380
O417        O  0.48901243  0.81585931  0.02102094    -0.80500
O418        O  0.59061192  0.79583612  0.07224896    -0.80420
O419        O  0.49934935  0.78200363  0.10988603    -0.80410
O420        O  0.55042825  0.78182013  0.99416438    -0.80440
C421        C  0.55850043  0.80553935  0.00320246     1.09280
C422        C  0.48873423  0.80565761  0.10496908     1.09170
C423        C  0.48531665  0.80618533  0.99655090     1.09310
C424        C  0.57743896  0.80261811  0.09442334     1.09180
O425        O  0.56717286  0.74591752  0.08178567    -0.80410
O426        O  0.46036623  0.76375194  0.02309382    -0.80480
O427        O  0.54939356  0.72734479  0.02039931    -0.80420
O428        O  0.49787234  0.72996158  0.08288371    -0.80400
O429        O  0.46440915  0.76181908  0.07796088    -0.80450
O430        O  0.58090198  0.75899751  0.02961169    -0.80420
O431        O  0.54025112  0.74495097  0.11965731    -0.80380
O432        O  0.49048545  0.72932582  0.01656360    -0.80450
Co433      Co  0.55762857  0.78100745  0.05631981     1.51530
Co434      Co  0.47911299  0.78916681  0.05056701     1.51690
Co435      Co  0.52134319  0.75523804  0.00797227     1.51570
Co436      Co  0.52595835  0.76061776  0.08632831     1.51470
O437        O  0.51793916  0.77167173  0.04711280    -1.42340
C438        C  0.56326322  0.73915345  0.10779627     1.09210
C439        C  0.46613444  0.73953824  0.01342156     1.09300
C440        C  0.57446196  0.73558593  0.01901442     1.09240
C441        C  0.47228444  0.73750312  0.08545554     1.09210
C442        C  0.41118149  0.85387155  0.18541333     0.02860
C443        C  0.39015223  0.83814283  0.19858885    -0.13290
C444        C  0.37815274  0.84754179  0.22385557     0.00360
C445        C  0.38719645  0.87282391  0.23581343    -0.11820
C446        C  0.40802507  0.88867122  0.22262280     0.02850
C447        C  0.41973915  0.87911236  0.19748432    -0.11240
H448        H  0.38431519  0.81791070  0.19007431     0.08450
H449        H  0.37906140  0.87944870  0.25601612     0.05980
H450        H  0.43768281  0.88991643  0.18889268     0.05820
C451        C  0.66417218  0.84932411  0.22967616     0.02860
C452        C  0.65558785  0.83882915  0.20358307    -0.13290
C453        C  0.63684822  0.85419423  0.18707467     0.00360
C454        C  0.62763782  0.88054873  0.19629348    -0.11820
C455        C  0.63444211  0.89077618  0.22309725     0.02850
C456        C  0.65264365  0.87462198  0.23992025    -0.11240
H457        H  0.66286260  0.81840572  0.19660105     0.08450
H458        H  0.61354090  0.89234966  0.18298191     0.05980
H459        H  0.65735237  0.88097120  0.26112712     0.05820
C460        C  0.65980605  0.35108576  0.15131002     0.02860
C461        C  0.66885711  0.37771138  0.14308606    -0.13290
C462        C  0.69373898  0.38891754  0.15354315     0.00360
C463        C  0.70877482  0.37423050  0.17416822    -0.11820
C464        C  0.69938179  0.34807137  0.18363508     0.02850
C465        C  0.67492528  0.33651098  0.17203486    -0.11240
H466        H  0.65731790  0.38908971  0.12719980     0.08450
H467        H  0.72800733  0.38288481  0.18244093     0.05980
H468        H  0.66796565  0.31607013  0.17881152     0.05820
C469        C  0.78313485  0.30189296  0.28488904     0.02020
C470        C  0.79535675  0.28960282  0.30896512     0.02020
C471        C  0.78297437  0.26545028  0.32106126     0.02020
C472        C  0.75647001  0.25558393  0.31088830     0.02020
C473        C  0.74728777  0.26532252  0.28391444     0.02020
C474        C  0.75894643  0.29006437  0.27267467     0.02020
C475        C  0.65694938  0.14256863  0.38199504     0.02860
C476        C  0.66778404  0.13058238  0.40642418    -0.13290
C477        C  0.69391022  0.13882728  0.41673206     0.00360
C478        C  0.70987519  0.15841281  0.40202246    -0.11820
C479        C  0.69868044  0.17216990  0.37857638     0.02850
C480        C  0.67162251  0.16460943  0.36938478    -0.11240
H481        H  0.65660523  0.11380150  0.41667290     0.08450
H482        H  0.73119024  0.16208448  0.40850499     0.05980
H483        H  0.66211325  0.17536689  0.35187612     0.05820
O484        O  0.50539042  0.95450457  0.28644967    -0.80410
O485        O  0.55559823  0.05839104  0.25654279    -0.80430
O486        O  0.46579951  0.04790609  0.28627132    -0.80440
O487        O  0.58247610  0.99723225  0.28991460    -0.80380
O488        O  0.49859870  0.05473099  0.25622875    -0.80500
O489        O  0.54515864  0.98868835  0.26421671    -0.80420
O490        O  0.58817335  0.05476903  0.28838169    -0.80410
O491        O  0.48106617  0.99234710  0.27562341    -0.80440
C492        C  0.48424087  0.96524256  0.27493621     1.09280
C493        C  0.57982861  0.06420850  0.26485333     1.09170
C494        C  0.47360614  0.05878277  0.26364463     1.09310
C495        C  0.57110437  0.98527174  0.26883125     1.09180
O496        O  0.54820728  0.96730329  0.31855498    -0.80410
O497        O  0.49699825  0.08384165  0.30975067    -0.80480
O498        O  0.45501823  0.00822821  0.32254702    -0.80420
O499        O  0.56087932  0.05892139  0.34265266    -0.80400
O500        O  0.55353842  0.08916420  0.30914691    -0.80450
O501        O  0.49244096  0.98305590  0.33198740    -0.80420
O502        O  0.55660796  0.00236752  0.34539045    -0.80380
O503        O  0.49137317  0.04899664  0.33932767    -0.80450
Co504      Co  0.51965572  0.98915937  0.29689837     1.51530
Co505      Co  0.52622177  0.06897699  0.28335012     1.51690
Co506      Co  0.48916371  0.02117204  0.30876248     1.51570
Co507      Co  0.56954921  0.02819241  0.31623118     1.51470
O508        O  0.52956425  0.03023379  0.30099916    -1.42340
C509        C  0.56075435  0.97706742  0.33955678     1.09210
C510        C  0.48687112  0.07424186  0.33233263     1.09300
C511        C  0.46537812  0.98669976  0.33357084     1.09240
C512        C  0.56358883  0.08325005  0.33304750     1.09210
O513        O  0.50216998  0.28569480  0.99172105    -0.80410
O514        O  0.55186682  0.28014061  0.10961633    -0.80430
O515        O  0.48905186  0.31085829  0.08267353    -0.80440
O516        O  0.59303705  0.28990523  0.03315239    -0.80380
O517        O  0.49436931  0.27909418  0.11491317    -0.80500
O518        O  0.55480600  0.30050050  0.01026972    -0.80420
O519        O  0.55630214  0.30816256  0.07340798    -0.80410
O520        O  0.49259696  0.31328460  0.02598958    -0.80440
C521        C  0.48916971  0.30679031  0.00072624     1.09280
C522        C  0.56171842  0.30237478  0.09875921     1.09170
C523        C  0.48416957  0.30241006  0.10714036     1.09310
C524        C  0.58171850  0.30216223  0.01273334     1.09180
O525        O  0.54720386  0.25450403  0.98114223    -0.80410
O526        O  0.49319423  0.22602686  0.08585151    -0.80480
O527        O  0.46691168  0.25792097  0.02181259    -0.80420
O528        O  0.58203908  0.25505636  0.07383010    -0.80400
O529        O  0.55060137  0.22434925  0.08394450    -0.80450
O530        O  0.50453852  0.23197938  0.01269992    -0.80420
O531        O  0.56745769  0.24198204  0.02052615    -0.80380
O532        O  0.46052098  0.25782980  0.07897523    -0.80450
Co533      Co  0.52982923  0.26467032  0.01488106     1.51530
Co534      Co  0.52245644  0.25286562  0.09592284     1.51690
Co535      Co  0.47958267  0.28460745  0.05241527     1.51570
Co536      Co  0.55889182  0.27640126  0.04691487     1.51470
O537        O  0.51883047  0.26837415  0.05587363    -1.42340
C538        C  0.56646304  0.24135428  0.99346369     1.09210
C539        C  0.46836795  0.23450348  0.08913261     1.09300
C540        C  0.47854373  0.23709257  0.00943222     1.09240
C541        C  0.57568499  0.23219363  0.08508848     1.09210
C542        C  0.40960859  0.19075944  0.18419275     0.02860
C543        C  0.42070761  0.16561425  0.19438760    -0.13290
C544        C  0.41378362  0.15601265  0.22122927     0.00360
C545        C  0.39358006  0.17090465  0.23703620    -0.11820
C546        C  0.38137450  0.19559948  0.22627378     0.02850
C547        C  0.38973389  0.20552654  0.19998289    -0.11240
H548        H  0.43590522  0.15420998  0.18182257     0.08450
H549        H  0.38770042  0.16361227  0.25766420     0.05980
H550        H  0.38140809  0.22518321  0.19222185     0.05820
C551        C  0.41530389  0.15814647  0.88052267     0.02860
C552        C  0.42256707  0.16639929  0.90756014    -0.13290
C553        C  0.41177188  0.19108867  0.91931376     0.00360
C554        C  0.39158914  0.20663342  0.90441703    -0.11820
C555        C  0.38289222  0.19757232  0.87763722     0.02850
C556        C  0.39510464  0.17345229  0.86565045    -0.11240
H557        H  0.43899727  0.15506123  0.91845070     0.08450
H558        H  0.38370404  0.22623172  0.91293429     0.05980
H559        H  0.38953642  0.16712475  0.84454760     0.05820
C560        C  0.67034662  0.18853538  0.87358565     0.02860
C561        C  0.66253424  0.19759558  0.90072325    -0.13290
C562        C  0.63801086  0.18777256  0.91329739     0.00360
C563        C  0.62374416  0.16553591  0.90085737    -0.11820
C564        C  0.63236161  0.15509015  0.87488618     0.02850
C565        C  0.65448826  0.16759068  0.86056277    -0.11240
H566        H  0.67461586  0.21330931  0.91166576     0.08450
H567        H  0.60514518  0.15715271  0.91070098     0.05980
H568        H  0.65937077  0.16073463  0.83944637     0.05820
O569        O  0.57796716  0.99652888  0.78505299    -0.80410
O570        O  0.46225501  0.04695461  0.78808244    -0.80430
O571        O  0.48670057  0.98366881  0.75630398    -0.80440
O572        O  0.53947426  0.08769215  0.77351552    -0.80380
O573        O  0.45720596  0.99153035  0.79087951    -0.80500
O574        O  0.56459964  0.04885263  0.77229800    -0.80420
O575        O  0.49674508  0.05220855  0.75729584    -0.80410
O576        O  0.54633243  0.98627150  0.75370237    -0.80440
C577        C  0.57152535  0.98504765  0.76206532     1.09280
C578        C  0.47117228  0.05523141  0.76432776     1.09170
C579        C  0.46232971  0.98151194  0.76678789     1.09310
C580        C  0.56182920  0.07519343  0.76626751     1.09180
O581        O  0.58853376  0.03833889  0.82203366    -0.80410
O582        O  0.48620271  0.98881872  0.84273025    -0.80480
O583        O  0.54736160  0.96137386  0.80816509    -0.80420
O584        O  0.49735796  0.07828899  0.80986023    -0.80400
O585        O  0.48998790  0.04769880  0.84245470    -0.80450
O586        O  0.55386006  0.99574088  0.83848478    -0.80420
O587        O  0.54910976  0.06339185  0.82331357    -0.80380
O588        O  0.49191722  0.95742106  0.80932701    -0.80450
Co589      Co  0.55518310  0.02327517  0.80733652     1.51530
Co590      Co  0.47670627  0.01871652  0.81582721     1.51690
Co591      Co  0.51797107  0.97509760  0.78199651     1.51570
Co592      Co  0.52401375  0.05434887  0.78833604     1.51470
O593        O  0.51524575  0.01465095  0.79810846    -1.42340
C594        C  0.57533812  0.06032120  0.82933491     1.09210
C595        C  0.48292755  0.96407323  0.83355643     1.09300
C596        C  0.55791668  0.97039936  0.83091203     1.09240
C597        C  0.48752416  0.07252054  0.83369103     1.09210
C598        C  0.69293418  0.38697144  0.93408881     0.02860
C599        C  0.66689891  0.37628557  0.94181108    -0.13290
C600        C  0.65862421  0.34979071  0.93292278     0.00360
C601        C  0.67439510  0.33548630  0.91249964    -0.11820
C602        C  0.69908037  0.34739395  0.90168125     0.02850
C603        C  0.70887267  0.37275010  0.91351282    -0.11240
H604        H  0.65511177  0.38658831  0.95842016     0.08450
H605        H  0.66860952  0.31435033  0.90659551     0.05980
H606        H  0.72942060  0.38038810  0.90792195     0.05820
C607        C  0.91199049  0.38226765  0.71717984     0.02860
C608        C  0.89052000  0.36881603  0.73181255    -0.13290
C609        C  0.87525932  0.34736790  0.71877257     0.00360
C610        C  0.88125732  0.33998318  0.69083626    -0.11820
C611        C  0.90436834  0.35172891  0.67682271     0.02850
C612        C  0.91901210  0.37341396  0.69014268    -0.11240
H613        H  0.88637211  0.37431665  0.75349170     0.08450
H614        H  0.86854147  0.32432449  0.68070673     0.05980
H615        H  0.93718961  0.38253067  0.68019654     0.05820
C616        C  0.79960621  0.27950346  0.78505696     0.02020
C617        C  0.78865831  0.29132328  0.80991991     0.02020
C618        C  0.76590825  0.27860733  0.82425546     0.02020
C619        C  0.75543873  0.25205159  0.81419001     0.02020
C620        C  0.76428459  0.24253453  0.78689333     0.02020
C621        C  0.78839183  0.25439198  0.77442406     0.02020
C622        C  0.69362553  0.16909136  0.71840197     0.02860
C623        C  0.66863411  0.15881253  0.73018743    -0.13290
C624        C  0.65237322  0.13902511  0.71560313     0.00360
C625        C  0.66105604  0.12999214  0.68898919    -0.11820
C626        C  0.68611445  0.13938754  0.67711556     0.02850
C627        C  0.70205090  0.15944805  0.69164504    -0.11240
H628        H  0.66284708  0.16487669  0.75132919     0.08450
H629        H  0.64931684  0.11373541  0.67834071     0.05980
H630        H  0.72182915  0.16620924  0.68296726     0.05820
O631        O  0.80001044  0.99219556  0.59157098    -0.80410
O632        O  0.78231561  0.05390550  0.48707611    -0.80430
O633        O  0.81063527  0.99021994  0.52885607    -0.80440
O634        O  0.81580080  0.05532392  0.57653587    -0.80380
O635        O  0.78402452  0.99685305  0.49178986    -0.80500
O636        O  0.78619326  0.04545554  0.60905893    -0.80420
O637        O  0.81385849  0.05895219  0.51965403    -0.80410
O638        O  0.79010764  0.95363278  0.56811901    -0.80440
C639        C  0.80111155  0.96515118  0.58921591     1.09280
C640        C  0.80542408  0.06409923  0.49526004     1.09170
C641        C  0.80602835  0.98646683  0.50296512     1.09310
C642        C  0.80857967  0.05702776  0.60179322     1.09180
O643        O  0.73275465  0.04495767  0.58617080    -0.80410
O644        O  0.72834857  0.99854826  0.51787140    -0.80480
O645        O  0.74294409  0.98031083  0.57977023    -0.80420
O646        O  0.76055403  0.08773321  0.52255090    -0.80400
O647        O  0.72904952  0.05522194  0.51555242    -0.80450
O648        O  0.75333335  0.00250232  0.61883230    -0.80420
O649        O  0.75997452  0.08171562  0.57960837    -0.80380
O650        O  0.75776854  0.96535530  0.52523306    -0.80450
Co651      Co  0.76498682  0.01856014  0.58543899     1.51530
Co652      Co  0.75618455  0.02608140  0.50544044     1.51690
Co653      Co  0.77794922  0.98816601  0.55396884     1.51570
Co654      Co  0.78720243  0.06848288  0.54956282     1.51470
O655        O  0.77139359  0.02906894  0.54526160    -1.42340
C656        C  0.73810912  0.07074828  0.59030141     1.09210
C657        C  0.73566763  0.97358350  0.51361508     1.09300
C658        C  0.74186831  0.98201802  0.60688488     1.09240
C659        C  0.73738193  0.07989228  0.51209083     1.09210
C660        C  0.84965691  0.15739731  0.43150590     0.02860
C661        C  0.83394179  0.17473984  0.41349502    -0.13290
C662        C  0.84502494  0.20029325  0.40384163     0.00360
C663        C  0.87140183  0.20895777  0.41344015    -0.11820
C664        C  0.88658087  0.19233648  0.43227160     0.02850
C665        C  0.87652166  0.16601781  0.43958751    -0.11240
H666        H  0.81270007  0.16929281  0.40801493     0.08450
H667        H  0.87957067  0.22915326  0.40738673     0.05980
H668        H  0.88834585  0.15363330  0.45449871     0.05820
C669        C  0.88511934  0.19220111  0.65041569     0.02860
C670        C  0.87187458  0.20768140  0.67184285    -0.13290
C671        C  0.84976233  0.19597700  0.68705275     0.00360
C672        C  0.84146037  0.16843919  0.68128108    -0.11820
C673        C  0.85287025  0.15357561  0.65846518     0.02850
C674        C  0.87534074  0.16538472  0.64377263    -0.11240
H675        H  0.87898984  0.22861262  0.67692286     0.08450
H676        H  0.82576636  0.15894379  0.69439555     0.05980
H677        H  0.88517246  0.15386149  0.62677332     0.05820
C678        C  0.35129717  0.13347682  0.68179933     0.02860
C679        C  0.37578969  0.12088175  0.69185780    -0.13290
C680        C  0.38718764  0.12834213  0.71780026     0.00360
C681        C  0.37410971  0.14954476  0.73379784    -0.11820
C682        C  0.35008352  0.16338714  0.72356600     0.02850
C683        C  0.33923039  0.15574063  0.69718979    -0.11240
H684        H  0.38500395  0.10347416  0.68034300     0.08450
H685        H  0.38176411  0.15443745  0.75458930     0.05980
H686        H  0.32061429  0.16613747  0.68947960     0.05820
C687        C  0.28646918  0.28188583  0.82502259     0.02020
C688        C  0.26228491  0.29411027  0.81289580     0.02020
C689        C  0.24954774  0.28145388  0.78921910     0.02020
C690        C  0.26104422  0.25626271  0.77805343     0.02020
C691        C  0.28621602  0.24490090  0.78926023     0.02020
C692        C  0.29756999  0.25653667  0.81406939     0.02020
O693        O  0.27250388  0.96519697  0.51499396    -0.80410
O694        O  0.31156654  0.04999086  0.57701601    -0.80430
O695        O  0.28135144  0.04434730  0.47725208    -0.80440
O696        O  0.30419685  0.99479129  0.57669012    -0.80380
O697        O  0.30887969  0.05396340  0.51328787    -0.80500
O698        O  0.27321649  0.96217488  0.57108484    -0.80420
O699        O  0.29459744  0.03407470  0.61707428    -0.80410
O700        O  0.29980576  0.00117719  0.50950384    -0.80440
C701        C  0.29477355  0.97559621  0.50498615     1.09280
C702        C  0.30892287  0.05231418  0.60409839     1.09170
C703        C  0.30231681  0.05720805  0.48705574     1.09310
C704        C  0.29699801  0.96951183  0.57950864     1.09180
O705        O  0.21982270  0.98831632  0.57633680    -0.80410
O706        O  0.25831904  0.08313745  0.52104155    -0.80480
O707        O  0.24580571  0.99954754  0.48472982    -0.80420
O708        O  0.24301536  0.04753878  0.59842834    -0.80400
O709        O  0.26120759  0.08152253  0.57581570    -0.80450
O710        O  0.21715617  0.99147478  0.51854784    -0.80420
O711        O  0.25248367  0.99439315  0.60781686    -0.80380
O712        O  0.23285260  0.04991243  0.50504470    -0.80450
Co713      Co  0.24611504  0.97977947  0.54532473     1.51530
Co714      Co  0.28266616  0.06161847  0.54695298     1.51690
Co715      Co  0.26679615  0.02693603  0.50885856     1.51570
Co716      Co  0.27398067  0.02251529  0.58548935     1.51470
O717        O  0.25867833  0.02113445  0.54776219    -1.42340
C718        C  0.22892067  0.98437909  0.60094969     1.09210
C719        C  0.23762693  0.07550066  0.50682335     1.09300
C720        C  0.22428988  0.98711905  0.49355361     1.09240
C721        C  0.24503976  0.07339337  0.59451633     1.09210
O722        O  0.95394042  0.25132518  0.53180375    -0.80410
O723        O  0.05486527  0.22792585  0.58302244    -0.80430
O724        O  0.04650101  0.25679805  0.49289150    -0.80440
O725        O  0.99293291  0.26067615  0.60862221    -0.80380
O726        O  0.05285905  0.22721902  0.52602756    -0.80500
O727        O  0.98922082  0.23276397  0.57201216    -0.80420
O728        O  0.04966462  0.25987814  0.61564175    -0.80410
O729        O  0.99200299  0.24373909  0.50683671    -0.80440
C730        C  0.96527238  0.24031939  0.51058894     1.09280
C731        C  0.05904949  0.23608804  0.60773864     1.09170
C732        C  0.05773392  0.23452283  0.50127439     1.09310
C733        C  0.98334210  0.23852206  0.59732065     1.09180
O734        O  0.96395052  0.28616952  0.57264698    -0.80410
O735        O  0.08094552  0.28122839  0.52511301    -0.80480
O736        O  0.00537629  0.29127155  0.48108742    -0.80420
O737        O  0.05360495  0.31398137  0.58910373    -0.80400
O738        O  0.08466705  0.28053863  0.58187500    -0.80450
O739        O  0.97923795  0.29875235  0.51848543    -0.80420
O740        O  0.99559465  0.31635235  0.58450736    -0.80380
O741        O  0.04537474  0.30991642  0.51750025    -0.80450
Co742      Co  0.98754115  0.26456021  0.54581301     1.51530
Co743      Co  0.06595978  0.25460989  0.55404038     1.51690
Co744      Co  0.01865666  0.27854232  0.51547130     1.51570
Co745      Co  0.02305611  0.28739954  0.59669554     1.51470
O746        O  0.02721607  0.27223399  0.55635870    -1.42340
C747        C  0.97037062  0.30865255  0.58487005     1.09210
C748        C  0.07101134  0.30335231  0.51404033     1.09300
C749        C  0.98315234  0.30098596  0.49159941     1.09240
C750        C  0.07806572  0.30430430  0.59220577     1.09210
C751        C  0.15423420  0.19776073  0.43763285     0.02860
C752        C  0.16479864  0.17189988  0.44644589    -0.13290
C753        C  0.19155513  0.16314107  0.43888844     0.00360
C754        C  0.20705686  0.17862157  0.41957734    -0.11820
C755        C  0.19588330  0.20350429  0.40853185     0.02850
C756        C  0.16983798  0.21361921  0.41839186    -0.11240
H757        H  0.15323091  0.15971110  0.46164516     0.08450
H758        H  0.22785756  0.17164080  0.41358063     0.05980
H759        H  0.16245786  0.23402144  0.41182574     0.05820
C760        C  0.13502142  0.34958983  0.68884174     0.02860
C761        C  0.12123975  0.37275278  0.70079708    -0.13290
C762        C  0.12879418  0.38291004  0.72733535     0.00360
C763        C  0.15073635  0.36974379  0.74206998    -0.11820
C764        C  0.16527710  0.34691996  0.72999983     0.02850
C765        C  0.15773615  0.33750218  0.70314339    -0.11240
H766        H  0.10412754  0.38264408  0.68962272     0.08450
H767        H  0.15638782  0.37713998  0.76279652     0.05980
H768        H  0.16925192  0.32028736  0.69370189     0.05820
C769        C  0.19449979  0.19580056  0.69694228     0.02860
C770        C  0.16855255  0.20577247  0.68731548    -0.13290
C771        C  0.15369398  0.19049048  0.66708317     0.00360
C772        C  0.16456411  0.16517084  0.65683636    -0.11820
C773        C  0.19058283  0.15535765  0.66598403     0.02850
C774        C  0.20543920  0.17060437  0.68621364    -0.11240
H775        H  0.16051800  0.22578327  0.69468248     0.08450
H776        H  0.15387290  0.15434464  0.63995988     0.05980
H777        H  0.22610842  0.16360188  0.69254150     0.05820
C778        C  0.67460606  0.19435719  0.21688328     0.02860
C779        C  0.66281343  0.17060659  0.22927656    -0.13290
C780        C  0.64186849  0.15569434  0.21517611     0.00360
C781        C  0.63155564  0.16589301  0.18961508    -0.11820
C782        C  0.64363490  0.18925985  0.17623540     0.02850
C783        C  0.66659676  0.20201300  0.18968341    -0.11240
H784        H  0.66907674  0.16444696  0.25018474     0.08450
H785        H  0.61334601  0.15578159  0.18079913     0.05980
H786        H  0.67831313  0.21831465  0.17979218     0.05820
C787        C  0.19967100  0.66007528  0.22703307     0.02860
C788        C  0.17565574  0.64742661  0.23862585    -0.13290
C789        C  0.16054374  0.62760988  0.22281836     0.00360
C790        C  0.16862120  0.62176651  0.19534282    -0.11820
C791        C  0.19364696  0.63218947  0.18446955     0.02850
C792        C  0.20925430  0.65118965  0.20053931    -0.11240
H793        H  0.16917756  0.65250890  0.25981734     0.08450
H794        H  0.15668146  0.60667429  0.18327349     0.05980
H795        H  0.22937386  0.65832264  0.19311158     0.05820
C796        C  0.34534487  0.34925284  0.19082157     0.02860
C797        C  0.33440494  0.37359838  0.17785661    -0.13290
C798        C  0.35069652  0.38840812  0.15820672     0.00360
C799        C  0.37786671  0.37899840  0.15231613    -0.11820
C800        C  0.38753706  0.35311219  0.16208581     0.02850
C801        C  0.37155475  0.33870997  0.18200907    -0.11240
H802        H  0.31326000  0.38049607  0.18252375     0.08450
H803        H  0.39064108  0.39077189  0.13783778     0.05980
H804        H  0.37892423  0.31870937  0.18981631     0.05820
C805        C  0.34857576  0.16330849  0.36755300     0.02860
C806        C  0.37439027  0.15303200  0.35749745    -0.13290
C807        C  0.38879009  0.13217803  0.37245300     0.00360
C808        C  0.37805085  0.12283992  0.39793516    -0.11820
C809        C  0.35174515  0.13159423  0.40704031     0.02850
C810        C  0.33707725  0.15217739  0.39214478    -0.11240
H811        H  0.38259517  0.16040087  0.33770437     0.08450
H812        H  0.38890413  0.10638851  0.40925271     0.05980
H813        H  0.31630882  0.15851956  0.39891147     0.05820
C814        C  0.16291995  0.34193672  0.37788891     0.02860
C815        C  0.15234496  0.36747138  0.36774782    -0.13290
C816        C  0.13208862  0.38240526  0.38306738     0.00360
C817        C  0.12288786  0.37223808  0.40872188    -0.11820
C818        C  0.13120460  0.34574582  0.41800763     0.02850
C819        C  0.15193982  0.33080737  0.40293376    -0.11240
H820        H  0.15902965  0.37511627  0.34748698     0.08450
H821        H  0.10680226  0.38373847  0.42009469     0.05980
H822        H  0.15878663  0.31038050  0.41006556     0.05820
C823        C  0.28276927  0.28370107  0.27273255     0.02020
C824        C  0.25867427  0.29570571  0.28566660     0.02020
C825        C  0.24804056  0.28462965  0.31106475     0.02020
C826        C  0.25971904  0.25966521  0.32212349     0.02020
C827        C  0.28328904  0.24701028  0.30886330     0.02020
C828        C  0.29440609  0.25873580  0.28391678     0.02020
C829        C  0.19784953  0.29194562  0.32590211    -0.20570
C830        C  0.22598183  0.30028188  0.32746837    -0.07140
C831        C  0.23315217  0.32237799  0.34597782     0.13730
C832        C  0.21223064  0.33529121  0.36243324    -0.20630
C833        C  0.18431516  0.32651517  0.36115952    -0.07150
C834        C  0.17701304  0.30465458  0.34258997     0.13720
C835        C  0.14719145  0.29490138  0.34022513    -0.23980
H836        H  0.19211985  0.27509692  0.31190793     0.15000
H837        H  0.21765051  0.35237696  0.37641935     0.15030
C838        C  0.26286516  0.33238686  0.34859523    -0.23920
H839        H  0.14501192  0.27777510  0.32454198     0.05250
H840        H  0.13354566  0.31261294  0.33371588     0.08470
H841        H  0.13994356  0.28692497  0.36077737     0.08470
H842        H  0.27032990  0.34038269  0.32824675     0.08460
H843        H  0.27668103  0.31500723  0.35521333     0.08460
H844        H  0.26479238  0.34954641  0.36426597     0.05230
C845        C  0.30902129  0.17611128  0.33635670    -0.20570
C846        C  0.33261320  0.18447910  0.35164262    -0.07140
C847        C  0.34002960  0.21295836  0.35247265     0.13730
C848        C  0.32328823  0.23257911  0.33849204    -0.20630
C849        C  0.29940048  0.22447527  0.32342910    -0.07150
C850        C  0.29251210  0.19572542  0.32184222     0.13720
C851        C  0.26848917  0.18539323  0.30439792    -0.23980
H852        H  0.30365203  0.15408288  0.33568355     0.15000
H853        H  0.32889308  0.25453125  0.33926190     0.15030
C854        C  0.36533501  0.22269420  0.36850001    -0.23920
H855        H  0.26697479  0.16219261  0.30471185     0.05250
H856        H  0.27138758  0.19185980  0.28245678     0.08470
H857        H  0.24850094  0.19392189  0.31228116     0.08470
H858        H  0.38448927  0.21273817  0.35968048     0.08460
H859        H  0.36323836  0.21687743  0.39089193     0.08460
H860        H  0.36787367  0.24576757  0.36733322     0.05230
C861        C  0.32299294  0.31341830  0.25866467    -0.20570
C862        C  0.29842412  0.29957071  0.25047337    -0.07140
C863        C  0.28904325  0.30276533  0.22243913     0.13730
C864        C  0.30417184  0.31976893  0.20376899    -0.20630
C865        C  0.32887208  0.33326928  0.21198642    -0.07150
C866        C  0.33833817  0.33001393  0.23986885     0.13720
C867        C  0.36426088  0.34465814  0.25012975    -0.23980
H868        H  0.33006069  0.31144293  0.28014184     0.15000
H869        H  0.29697713  0.32194365  0.18234776     0.15030
C870        C  0.26356394  0.28831144  0.21119912    -0.23920
H871        H  0.36795342  0.34090557  0.27277511     0.05250
H872        H  0.36201007  0.36758730  0.24697983     0.08470
H873        H  0.38291517  0.33690446  0.23854653     0.08470
H874        H  0.24800159  0.30418636  0.20428193     0.08460
H875        H  0.25367749  0.27470702  0.22692478     0.08460
H876        H  0.26950290  0.27507138  0.19292542     0.05230
C877        C  0.23695032  0.23198383  0.39398203    -0.20570
C878        C  0.21174810  0.21879161  0.38682290    -0.07140
C879        C  0.20287123  0.21873934  0.35867764     0.13730
C880        C  0.21954112  0.23154795  0.33833136    -0.20630
C881        C  0.24461028  0.24510934  0.34530321    -0.07150
C882        C  0.25325880  0.24560514  0.37367592     0.13720
C883        C  0.27909143  0.26055724  0.38343595    -0.23980
H884        H  0.24378450  0.23190454  0.41563935     0.15000
H885        H  0.21297832  0.23100012  0.31660299     0.15030
C886        C  0.17609043  0.20466913  0.34994566    -0.23920
H887        H  0.29366789  0.24533919  0.39331297     0.05250
H888        H  0.27321806  0.27683724  0.39910464     0.08470
H889        H  0.29024133  0.27097484  0.36615254     0.08470
H890        H  0.15801144  0.21493137  0.36051240     0.08460
H891        H  0.17682801  0.18218518  0.35574110     0.08460
H892        H  0.17265916  0.20602671  0.32698102     0.05230
C893        C  0.11853523  0.35456201  0.63931043    -0.20570
C894        C  0.12400658  0.33707710  0.66244680    -0.07140
C895        C  0.11565873  0.30869576  0.66115506     0.13730
C896        C  0.10253777  0.29873384  0.63695644    -0.20630
C897        C  0.09618556  0.31624230  0.61432847    -0.07150
C898        C  0.10433333  0.34453366  0.61541650     0.13720
C899        C  0.09807404  0.36398478  0.59150178    -0.23980
H900        H  0.12464431  0.37637037  0.64032795     0.15000
H901        H  0.09560369  0.27731068  0.63652997     0.15030
C902        C  0.11823791  0.28911918  0.68582511    -0.23920
H903        H  0.10642606  0.38530335  0.59545216     0.05250
H904        H  0.07510808  0.36581627  0.58849068     0.08470
H905        H  0.10778611  0.35567881  0.57198622     0.08470
H906        H  0.10854671  0.29882569  0.70470628     0.08460
H907        H  0.14046572  0.28397081  0.68997160     0.08460
H908        H  0.10748317  0.26889525  0.68191935     0.05230
C909        C  0.13104773  0.32524438  0.46599143    -0.20570
C910        C  0.11601917  0.33360012  0.44220924    -0.07140
C911        C  0.08634396  0.33294037  0.44291622     0.13730
C912        C  0.07265615  0.32586316  0.46776827    -0.20630
C913        C  0.08747901  0.31695898  0.49150304    -0.07150
C914        C  0.11720471  0.31631582  0.49043000     0.13720
C915        C  0.13455953  0.30660306  0.51493046    -0.23980
H916        H  0.15371803  0.32580377  0.46544609     0.15000
H917        H  0.04997280  0.32533777  0.46777592     0.15030
C918        C  0.06823980  0.33817740  0.41751339    -0.23920
H919        H  0.15725699  0.30991959  0.51125752     0.05250
H920        H  0.13162329  0.28384484  0.51836556     0.08470
H921        H  0.12848904  0.31845929  0.53408612     0.08470
H922        H  0.08037321  0.34014984  0.39785075     0.08460
H923        H  0.05556974  0.35750247  0.42079183     0.08460
H924        H  0.05384959  0.32023678  0.41442934     0.05230
C925        C  0.10230696  0.19722126  0.66264005    -0.20570
C926        C  0.12932778  0.20283536  0.65284096    -0.07140
C927        C  0.13295107  0.21827880  0.62806286     0.13730
C928        C  0.10937267  0.22722009  0.61323222    -0.20630
C929        C  0.08220596  0.22286419  0.62352248    -0.07150
C930        C  0.07864214  0.20764374  0.64851875     0.13720
C931        C  0.05018409  0.20273254  0.66052474    -0.23980
H932        H  0.09979299  0.18502116  0.68155274     0.15000
H933        H  0.11229973  0.23846363  0.59384932     0.15030
C934        C  0.16171722  0.22552940  0.61738889    -0.23920
H935        H  0.05092864  0.18841083  0.67877665     0.05250
H936        H  0.03629383  0.19335255  0.64439510     0.08470
H937        H  0.04185125  0.22315556  0.66788903     0.08470
H938        H  0.17381603  0.20611117  0.61286423     0.08460
H939        H  0.17293960  0.23807207  0.63343973     0.08460
H940        H  0.16071721  0.23805574  0.59786672     0.05230
C941        C  0.08076526  0.22427687  0.45559726    -0.20570
C942        C  0.08137217  0.22250489  0.48504434    -0.07140
C943        C  0.10644164  0.21392645  0.49839689     0.13730
C944        C  0.12995126  0.20780539  0.48206232    -0.20630
C945        C  0.12927805  0.20887575  0.45267760    -0.07150
C946        C  0.10432383  0.21722269  0.43919356     0.13720
C947        C  0.10214723  0.21806234  0.40773499    -0.23980
H948        H  0.06176720  0.23139887  0.44539801     0.15000
H949        H  0.14919046  0.20167103  0.49240722     0.15030
C950        C  0.10931736  0.21194902  0.52984222    -0.23920
H951        H  0.08057549  0.22337119  0.40083222     0.05250
H952        H  0.10779540  0.19728818  0.39873908     0.08470
H953        H  0.11629788  0.23424039  0.39921528     0.08470
H954        H  0.09415332  0.19659393  0.53823240     0.08460
H955        H  0.10581747  0.23278370  0.53959118     0.08460
H956        H  0.13053783  0.20481562  0.53622342     0.05230
C957        C  0.22412938  0.12454978  0.49914338    -0.20570
C958        C  0.22249277  0.09659258  0.49003623    -0.07140
C959        C  0.21111928  0.09060263  0.46320446     0.13730
C960        C  0.20183776  0.11283354  0.44635263    -0.20630
C961        C  0.20429719  0.14061886  0.45542812    -0.07150
C962        C  0.21542742  0.14659484  0.48211704     0.13720
C963        C  0.21836358  0.17630786  0.49258699    -0.23980
H964        H  0.23303178  0.12927983  0.51949825     0.15000
H965        H  0.19265817  0.10860211  0.42601669     0.15030
C966        C  0.20956445  0.06118904  0.45166897    -0.23920
H967        H  0.22804161  0.17718538  0.51372349     0.05250
H968        H  0.19751303  0.18652290  0.49397363     0.08470
H969        H  0.23179186  0.18830168  0.47799702     0.08470
H970        H  0.19626594  0.04812971  0.46542314     0.08460
H971        H  0.23088842  0.05194125  0.45020092     0.08460
H972        H  0.20030975  0.06070023  0.43033458     0.05230
C973        C  0.21030758  0.08577622  0.63194274    -0.20570
C974        C  0.23066483  0.09457030  0.61259264    -0.07140
C975        C  0.23827756  0.12346587  0.61215812     0.13730
C976        C  0.22528649  0.14220118  0.63066510    -0.20630
C977        C  0.20485898  0.13339907  0.64945912    -0.07150
C978        C  0.19715040  0.10497329  0.65024406     0.13720
C979        C  0.17538209  0.09496583  0.67061340    -0.23980
H980        H  0.20461715  0.06385738  0.63275740     0.15000
H981        H  0.23070357  0.16423723  0.63016641     0.15030
C982        C  0.26015559  0.13535163  0.59270109    -0.23920
H983        H  0.17218495  0.07199582  0.66892325     0.05250
H984        H  0.15507253  0.10553110  0.66641267     0.08470
H985        H  0.18210192  0.09988720  0.69234444     0.08470
H986        H  0.25366007  0.13238852  0.57056459     0.08460
H987        H  0.28073111  0.12515509  0.59652174     0.08460
H988        H  0.26312162  0.15820333  0.59593509     0.05230
C989        C  0.34452127  0.11727598  0.45629327    -0.20570
C990        C  0.33775621  0.11409926  0.42786828    -0.07140
C991        C  0.32137118  0.09124580  0.41905900     0.13730
C992        C  0.31194529  0.07231151  0.43891034    -0.20630
C993        C  0.31786170  0.07554550  0.46762213    -0.07150
C994        C  0.33443097  0.09845407  0.47646633     0.13720
C995        C  0.34103673  0.10367300  0.50688735    -0.23980
H996        H  0.35780032  0.13450841  0.46263570     0.15000
H997        H  0.29917752  0.05505237  0.43163422     0.15030
C998        C  0.31359057  0.08573493  0.38885923    -0.23920
H999        H  0.35403928  0.12267304  0.50980627     0.05250
H1000       H  0.35286927  0.08558444  0.51547893     0.08470
H1001       H  0.32135189  0.10682936  0.51892027     0.08470
H1002       H  0.32184709  0.06490565  0.38231286     0.08460
H1003       H  0.32179595  0.10146431  0.37408922     0.08460
H1004       H  0.29043928  0.08565622  0.38680860     0.05230
C1005       C  0.24380960  0.24918429  0.72902120    -0.20570
C1006       C  0.24480323  0.24007398  0.75692226    -0.07140
C1007       C  0.22834234  0.21692264  0.76509094     0.13730
C1008       C  0.21190945  0.20312552  0.74506865    -0.20630
C1009       C  0.21109456  0.21214230  0.71726411    -0.07150
C1010       C  0.22702523  0.23553697  0.70909851     0.13720
C1011       C  0.22639536  0.24598220  0.67939368    -0.23980
H1012       H  0.25581930  0.26726401  0.72285171     0.15000
H1013       H  0.19957773  0.18514344  0.75109837     0.15030
C1014       C  0.22744778  0.20691839  0.79499047    -0.23920
H1015       H  0.24044210  0.26419354  0.67646465     0.05250
H1016       H  0.20481411  0.25268232  0.67391241     0.08470
H1017       H  0.23324488  0.22903971  0.66485705     0.08470
H1018       H  0.22270926  0.22445069  0.80957441     0.08460
H1019       H  0.24777247  0.19772106  0.80079406     0.08460
H1020       H  0.21135459  0.19052445  0.79803716     0.05230
C1021       C  0.23512612  0.31522457  0.75232191    -0.20570
C1022       C  0.22690662  0.29700059  0.77378992    -0.07140
C1023       C  0.19816855  0.29558294  0.78093413     0.13730
C1024       C  0.17876563  0.31315363  0.76726084    -0.20630
C1025       C  0.18711881  0.33132509  0.74585596    -0.07150
C1026       C  0.21564842  0.33226126  0.73822972     0.13720
C1027       C  0.22564301  0.35162282  0.71557011    -0.23980
H1028       H  0.25707415  0.31623393  0.74667848     0.15000
H1029       H  0.15671141  0.31185072  0.77243160     0.15030
C1030       C  0.18738605  0.27441596  0.80140736    -0.23920
H1031       H  0.24870755  0.35040432  0.71283652     0.05250
H1032       H  0.21999132  0.37356593  0.72108301     0.08470
H1033       H  0.21581649  0.34596922  0.69528241     0.08470
H1034       H  0.19928726  0.27503876  0.82120842     0.08460
H1035       H  0.18912889  0.25330933  0.79189956     0.08460
H1036       H  0.16496363  0.27808316  0.80647716     0.05230
C1037       C  0.30376461  0.19564595  0.78052936    -0.20570
C1038       C  0.30303526  0.22393182  0.77268751    -0.07140
C1039       C  0.31953665  0.23250539  0.74964428     0.13730
C1040       C  0.33463690  0.21240931  0.73394362    -0.20630
C1041       C  0.33462282  0.18402205  0.74137267    -0.07150
C1042       C  0.31917745  0.17561020  0.76514742     0.13720
C1043       C  0.31837191  0.14537783  0.77401408    -0.23980
H1044       H  0.29253725  0.18905424  0.79888188     0.15000
H1045       H  0.34684838  0.21890599  0.71599340     0.15030
C1046       C  0.32225120  0.26304915  0.74235979    -0.23920
H1047       H  0.30449408  0.14231799  0.79242021     0.05250
H1048       H  0.33966075  0.13812718  0.77987654     0.08470
H1049       H  0.31038039  0.13223567  0.75655066     0.08470
H1050       H  0.33095922  0.27468492  0.76053997     0.08460
H1051       H  0.30157516  0.27208699  0.73702097     0.08460
H1052       H  0.33640681  0.26618864  0.72419054     0.05230
C1053       C  0.35297876  0.11197727  0.63405414    -0.20570
C1054       C  0.33695419  0.11935816  0.65788111    -0.07140
C1055       C  0.31030797  0.10704200  0.66137358     0.13730
C1056       C  0.30173291  0.08619070  0.64257946    -0.20630
C1057       C  0.31879826  0.07702116  0.62028017    -0.07150
C1058       C  0.34424407  0.09092648  0.61522446     0.13720
C1059       C  0.36299700  0.08248678  0.59123859    -0.23980
H1060       H  0.37337677  0.12139714  0.63129038     0.15000
H1061       H  0.28168828  0.07623075  0.64593787     0.15030
C1062       C  0.29140185  0.11409585  0.68581099    -0.23920
H1063       H  0.38264510  0.09480044  0.59104221     0.05250
H1064       H  0.35205036  0.08613270  0.57108696     0.08470
H1065       H  0.36867243  0.05997139  0.59299188     0.08470
H1066       H  0.28438728  0.13622691  0.68452145     0.08460
H1067       H  0.30250978  0.11040189  0.70587576     0.08460
H1068       H  0.27222151  0.10105662  0.68588733     0.05230
C1069       C  0.93879431  0.21231916  0.59492557    -0.20570
C1070       C  0.96035883  0.22331654  0.61164767    -0.07140
C1071       C  0.95670318  0.22385952  0.64114217     0.13730
C1072       C  0.93236858  0.21269489  0.65291585    -0.20630
C1073       C  0.91031471  0.20321216  0.63613473    -0.07150
C1074       C  0.91339181  0.20353657  0.60661296     0.13720
C1075       C  0.88991961  0.19669201  0.58663541    -0.23980
H1076       H  0.94073074  0.21268911  0.57230310     0.15000
H1077       H  0.93008614  0.21231148  0.67551623     0.15030
C1078       C  0.97786901  0.23665965  0.66052817    -0.23920
H1079       H  0.88677314  0.21444573  0.57199726     0.05250
H1080       H  0.86961105  0.19335296  0.59724825     0.08470
H1081       H  0.89544429  0.17767017  0.57428623     0.08470
H1082       H  0.97836373  0.25972080  0.65787620     0.08460
H1083       H  0.99849560  0.22757398  0.65565670     0.08460
H1084       H  0.97309180  0.23247281  0.68289174     0.05230
C1085       C  0.93620510  0.19881406  0.44795136    -0.20570
C1086       C  0.90758231  0.20512458  0.45093115    -0.07140
C1087       C  0.89832531  0.22072979  0.47432011     0.13730
C1088       C  0.91785225  0.23102032  0.49325743    -0.20630
C1089       C  0.94673199  0.22578664  0.49020640    -0.07150
C1090       C  0.95603463  0.20891657  0.46744187     0.13720
C1091       C  0.98638926  0.20090042  0.46390168    -0.23980
H1092       H  0.94293645  0.18570771  0.43057321     0.15000
H1093       H  0.91015529  0.24364511  0.51058789     0.15030
C1094       C  0.86762787  0.22604480  0.47992967    -0.23920
H1095       H  0.98953082  0.18654876  0.44576208     0.05250
H1096       H  0.99391230  0.19002730  0.48299484     0.08470
H1097       H  0.99931550  0.21973744  0.46021956     0.08470
H1098       H  0.85637198  0.20586391  0.48169300     0.08460
H1099       H  0.85851499  0.23845107  0.46269316     0.08460
H1100       H  0.86412549  0.23794775  0.49969843     0.05230
C1101       C  0.80223363  0.09820577  0.63183418    -0.20570
C1102       C  0.82083312  0.07847326  0.62028879    -0.07140
C1103       C  0.84982053  0.08195141  0.62397633     0.13730
C1104       C  0.85944279  0.10531326  0.63908195    -0.20630
C1105       C  0.84091405  0.12647239  0.64861158    -0.07150
C1106       C  0.81169014  0.12271219  0.64475939     0.13720
C1107       C  0.79012326  0.14506747  0.65155455    -0.23980
H1108       H  0.77995118  0.09545275  0.62894265     0.15000
H1109       H  0.88175369  0.10775943  0.64222887     0.15030
C1110       C  0.87056149  0.06129848  0.61191085    -0.23920
H1111       H  0.76931241  0.14001072  0.64253404     0.05250
H1112       H  0.79654259  0.16548563  0.64265722     0.08470
H1113       H  0.78697238  0.14685068  0.67446172     0.08470
H1114       H  0.86875121  0.06068221  0.58873980     0.08460
H1115       H  0.86649581  0.04017385  0.62044763     0.08460
H1116       H  0.89243719  0.06701964  0.61718741     0.05230
C1117       C  0.84009655  0.13276576  0.47583124    -0.20570
C1118       C  0.83717791  0.13311736  0.44656294    -0.07140
C1119       C  0.82451464  0.10993645  0.43310843     0.13730
C1120       C  0.81521398  0.08720251  0.44938298    -0.20630
C1121       C  0.81883108  0.08668810  0.47866370    -0.07150
C1122       C  0.83167541  0.10997158  0.49197345     0.13720
C1123       C  0.83592580  0.11185722  0.52331134    -0.23980
H1124       H  0.84926710  0.15071130  0.48629460     0.15000
H1125       H  0.80493705  0.06973194  0.43917918     0.15030
C1126       C  0.82138904  0.10855451  0.40173674    -0.23920
H1127       H  0.84576319  0.13191369  0.52973049     0.05250
H1128       H  0.85004024  0.09474358  0.53037199     0.08470
H1129       H  0.81548096  0.11060471  0.53427923     0.08470
H1130       H  0.84202662  0.11167999  0.39155664     0.08460
H1131       H  0.80640916  0.12475206  0.39448707     0.08460
H1132       H  0.81318007  0.08794771  0.39476836     0.05230
C1133       C  0.70362430  0.09447728  0.65860338    -0.20570
C1134       C  0.69832824  0.12281559  0.65353985    -0.07140
C1135       C  0.70424670  0.13378074  0.62677041     0.13730
C1136       C  0.71611306  0.11610178  0.60598822    -0.20630
C1137       C  0.72166271  0.08755863  0.61119585    -0.07150
C1138       C  0.71519693  0.07683915  0.63811970     0.13720
C1139       C  0.72217633  0.04740980  0.64659823    -0.23980
H1140       H  0.69925102  0.08620757  0.67927029     0.15000
H1141       H  0.72137760  0.12466331  0.58569136     0.15030
C1142       C  0.69762266  0.16382542  0.62001667    -0.23920
H1143       H  0.71564875  0.04283247  0.66843779     0.05250
H1144       H  0.74517678  0.04461831  0.64571568     0.08470
H1145       H  0.71112729  0.03237030  0.63279253     0.08470
H1146       H  0.70986641  0.17795355  0.63378593     0.08460
H1147       H  0.67493563  0.16788908  0.62327717     0.08460
H1148       H  0.70280554  0.16882698  0.59791801     0.05230
C1149       C  0.80191259  0.24831104  0.72421528    -0.20570
C1150       C  0.80391153  0.23905706  0.75197905    -0.07140
C1151       C  0.82193685  0.21622025  0.75838255     0.13730
C1152       C  0.83691770  0.20298486  0.73679907    -0.20630
C1153       C  0.83495054  0.21220787  0.70909769    -0.07150
C1154       C  0.81733970  0.23521634  0.70267321     0.13720
C1155       C  0.81422860  0.24549508  0.67305589    -0.23980
H1156       H  0.78829850  0.26589708  0.71946790     0.15000
H1157       H  0.85029843  0.18522303  0.74162570     0.15030
C1158       C  0.82588926  0.20503582  0.78767919    -0.23920
H1159       H  0.79890753  0.26302397  0.67165883     0.05250
H1160       H  0.80683020  0.22818001  0.65937248     0.08470
H1161       H  0.83463048  0.25318520  0.66519381     0.08470
H1162       H  0.81969197  0.18267736  0.78836700     0.08460
H1163       H  0.81351331  0.21660205  0.80366409     0.08460
H1164       H  0.84831023  0.20631883  0.79358913     0.05230
C1165       C  0.75516095  0.19690203  0.76121248    -0.20570
C1166       C  0.74593675  0.22394515  0.76887855    -0.07140
C1167       C  0.71935114  0.23298283  0.75901414     0.13730
C1168       C  0.70267914  0.21463895  0.74296298    -0.20630
C1169       C  0.71218242  0.18777707  0.73529685    -0.07150
C1170       C  0.73879888  0.17880901  0.74473160     0.13720
C1171       C  0.74959754  0.14964992  0.73864790    -0.23980
H1172       H  0.77478883  0.18925412  0.76923922     0.15000
H1173       H  0.68227404  0.22162528  0.73581628     0.15030
C1174       C  0.70815043  0.26210642  0.76423944    -0.23920
H1175       H  0.77003066  0.14562215  0.74899875     0.05250
H1176       H  0.75275786  0.14665779  0.71583005     0.08470
H1177       H  0.73443151  0.13396705  0.74642516     0.08470
H1178       H  0.72360941  0.27605177  0.77428843     0.08460
H1179       H  0.68922001  0.26104989  0.77770059     0.08460
H1180       H  0.70240583  0.27187126  0.74396627     0.05230
C1181       C  0.93677936  0.30181389  0.62311601    -0.20570
C1182       C  0.95013872  0.32068937  0.60516072    -0.07140
C1183       C  0.94515759  0.34956897  0.60852643     0.13730
C1184       C  0.92740528  0.35882943  0.63028923    -0.20630
C1185       C  0.91599346  0.34003958  0.65001420    -0.07150
C1186       C  0.92067382  0.31089375  0.64597736     0.13720
C1187       C  0.91100192  0.28898838  0.66648754    -0.23980
H1188       H  0.94036594  0.27958280  0.62024963     0.15000
H1189       H  0.92367432  0.38110989  0.63284951     0.15030
C1190       C  0.95853426  0.37052545  0.58933074    -0.23920
H1191       H  0.92031058  0.26819815  0.66181784     0.05250
H1192       H  0.88804540  0.28626398  0.66514155     0.08470
H1193       H  0.91744314  0.29463802  0.68811710     0.08470
H1194       H  0.95252844  0.36596901  0.56731541     0.08460
H1195       H  0.98165615  0.36939223  0.59132011     0.08460
H1196       H  0.95185088  0.39228188  0.59445854     0.05230
C1197       C  0.86648738  0.30774156  0.75090576    -0.20570
C1198       C  0.85563218  0.33017488  0.73539904    -0.07140
C1199       C  0.82665065  0.33570504  0.73607092     0.13730
C1200       C  0.80910850  0.31857495  0.75220569    -0.20630
C1201       C  0.81988775  0.29611929  0.76790631    -0.07150
C1202       C  0.84908863  0.29078869  0.76731779     0.13720
C1203       C  0.86276344  0.26791411  0.78402052    -0.23980
H1204       H  0.88883261  0.30359620  0.75040716     0.15000
H1205       H  0.78679119  0.32275505  0.75268891     0.15030
C1206       C  0.81436802  0.35979486  0.71992229    -0.23920
H1207       H  0.87314770  0.25273733  0.76962321     0.05250
H1208       H  0.84762435  0.25652599  0.79712379     0.08470
H1209       H  0.87874239  0.27709255  0.79817373     0.08470
H1210       H  0.81874293  0.35692938  0.69723525     0.08460
H1211       H  0.82384198  0.37972800  0.72720309     0.08460
H1212       H  0.79134272  0.36137120  0.72281193     0.05230
C1213       C  0.74375282  0.32319261  0.88880283    -0.20570
C1214       C  0.71652941  0.33116658  0.88119245    -0.07140
C1215       C  0.70608522  0.32245329  0.85485714     0.13730
C1216       C  0.72278364  0.30546842  0.83726652    -0.20630
C1217       C  0.74970333  0.29636787  0.84518630    -0.07150
C1218       C  0.76027861  0.30565345  0.87160608     0.13720
C1219       C  0.78750312  0.29556911  0.88394530    -0.23980
H1220       H  0.75172329  0.32954658  0.90912005     0.15000
H1221       H  0.71468386  0.29915002  0.81706121     0.15030
C1222       C  0.67767830  0.33179959  0.84471744    -0.23920
H1223       H  0.80145134  0.31363901  0.88780206     0.05250
H1224       H  0.79817114  0.27985471  0.87049353     0.08470
H1225       H  0.78348914  0.28543956  0.90443639     0.08470
H1226       H  0.67640876  0.35502934  0.84501412     0.08460
H1227       H  0.66098607  0.32314138  0.85821684     0.08460
H1228       H  0.67358392  0.32455424  0.82296130     0.05230
C1229       C  0.58182335  0.12009511  0.74817189    -0.20570
C1230       C  0.58491396  0.09091385  0.75199327    -0.07140
C1231       C  0.61086159  0.07823936  0.74428011     0.13730
C1232       C  0.63229832  0.09476929  0.73307291    -0.20630
C1233       C  0.62909297  0.12371312  0.72940155    -0.07150
C1234       C  0.60353597  0.13656733  0.73705710     0.13720
C1235       C  0.59889133  0.16748601  0.73291586    -0.23980
H1236       H  0.56239008  0.13027558  0.75420705     0.15000
H1237       H  0.65199251  0.08500254  0.72709336     0.15030
C1238       C  0.61673066  0.04743001  0.74782636    -0.23920
H1239       H  0.57742861  0.17404154  0.73918952     0.05250
H1240       H  0.60184394  0.17279867  0.71049170     0.08470
H1241       H  0.61394486  0.17955072  0.74581539     0.08470
H1242       H  0.60118980  0.03498802  0.73588178     0.08460
H1243       H  0.61606641  0.04202509  0.77038756     0.08460
H1244       H  0.63781604  0.04136501  0.73995411     0.05230
C1245       C  0.40502912  0.08133777  0.73017446    -0.20570
C1246       C  0.40988480  0.11030870  0.72923781    -0.07140
C1247       C  0.43650240  0.12059381  0.73691786     0.13730
C1248       C  0.45723997  0.10164072  0.74609588    -0.20630
C1249       C  0.45192812  0.07276694  0.74771120    -0.07150
C1250       C  0.42566282  0.06254595  0.73916987     0.13720
C1251       C  0.41929573  0.03177849  0.73957297    -0.23980
H1252       H  0.38474437  0.07335806  0.72396857     0.15000
H1253       H  0.47724334  0.10952023  0.75327115     0.15030
C1254       C  0.44322479  0.15130819  0.73518892    -0.23920
H1255       H  0.39806513  0.02719443  0.73134546     0.05250
H1256       H  0.42026716  0.02420709  0.76136325     0.08470
H1257       H  0.43479535  0.02026924  0.72646183     0.08470
H1258       H  0.42982711  0.16343756  0.74991098     0.08460
H1259       H  0.43968443  0.15883759  0.71350886     0.08460
H1260       H  0.46537956  0.15545710  0.74079476     0.05230
C1261       C  0.69716859  0.23156075  0.86291520    -0.20570
C1262       C  0.69346876  0.20271206  0.85836373    -0.07140
C1263       C  0.71343256  0.18857466  0.84105717     0.13730
C1264       C  0.73349349  0.20464729  0.82671153    -0.20630
C1265       C  0.73604282  0.23373424  0.83166054    -0.07150
C1266       C  0.72296883  0.24303876  0.85646677     0.13720
C1267       C  0.74099981  0.24566046  0.88219573    -0.23980
H1268       H  0.68386117  0.24299914  0.87734081     0.15000
H1269       H  0.74862185  0.19383228  0.81383631     0.15030
C1270       C  0.71587193  0.15715867  0.83860063    -0.23920
H1271       H  0.73936182  0.22649279  0.89524130     0.05250
H1272       H  0.73394823  0.26360028  0.89531054     0.08470
H1273       H  0.76338572  0.24701500  0.87653978     0.08470
H1274       H  0.70960170  0.15038883  0.81722510     0.08460
H1275       H  0.70338265  0.14592957  0.85445167     0.08460
H1276       H  0.73794899  0.15070406  0.84217030     0.05230
C1277       C  0.62203288  0.10476578  0.87531100    -0.20570
C1278       C  0.61793795  0.13098873  0.86281997    -0.07140
C1279       C  0.59951401  0.13395152  0.84005439     0.13730
C1280       C  0.58543637  0.11035978  0.83027170    -0.20630
C1281       C  0.58986397  0.08393269  0.84230674    -0.07150
C1282       C  0.60826220  0.08100097  0.86515281     0.13720
C1283       C  0.61238548  0.05335191  0.87958271    -0.23980
H1284       H  0.63601398  0.10298299  0.89310201     0.15000
H1285       H  0.57118854  0.11252784  0.81278920     0.15030
C1286       C  0.59432675  0.16191578  0.82639296    -0.23920
H1287       H  0.62689315  0.05514636  0.89766431     0.05250
H1288       H  0.62131643  0.03768363  0.86477895     0.08470
H1289       H  0.59192164  0.04595838  0.88756162     0.08470
H1290       H  0.61400777  0.16985456  0.81708623     0.08460
H1291       H  0.58644908  0.17718022  0.84220760     0.08460
H1292       H  0.57859594  0.16040848  0.80933005     0.05230
C1293       C  0.33353939  0.20557261  0.86401298    -0.20570
C1294       C  0.36156736  0.21349822  0.86160959    -0.07140
C1295       C  0.36879950  0.23540010  0.84321240     0.13730
C1296       C  0.34770405  0.24886826  0.82756334    -0.20630
C1297       C  0.31954305  0.24099811  0.83007482    -0.07150
C1298       C  0.31241881  0.21909547  0.84871790     0.13720
C1299       C  0.28276754  0.20947178  0.85330226    -0.23980
H1300       H  0.32806474  0.18866850  0.87804468     0.15000
H1301       H  0.35312556  0.26569250  0.81344321     0.15030
C1302       C  0.39875060  0.24446379  0.84013322    -0.23920
H1303       H  0.27726809  0.21155496  0.87581635     0.05250
H1304       H  0.28091763  0.18706215  0.84731878     0.08470
H1305       H  0.26725369  0.22166434  0.84115038     0.08470
H1306       H  0.41171533  0.22660153  0.83253585     0.08460
H1307       H  0.40685905  0.25170028  0.86071014     0.08460
H1308       H  0.40083308  0.26190729  0.82498085     0.05230
C1309       C  0.42964307  0.10836722  0.87626423    -0.20570
C1310       C  0.43243474  0.13603707  0.86711920    -0.07140
C1311       C  0.45448521  0.14301235  0.84885077     0.13730
C1312       C  0.47293643  0.12198429  0.83968881    -0.20630
C1313       C  0.46994157  0.09395470  0.84816118    -0.07150
C1314       C  0.44787555  0.08710622  0.86680859     0.13720
C1315       C  0.44267208  0.05753014  0.87622810    -0.23980
H1316       H  0.41307339  0.10345222  0.89094142     0.15000
H1317       H  0.48965896  0.12749833  0.82541042     0.15030
C1318       C  0.45894385  0.17276381  0.83944718    -0.23920
H1319       H  0.42437334  0.05621821  0.89052677     0.05250
H1320       H  0.46120200  0.04942809  0.88769596     0.08470
H1321       H  0.43828185  0.04404603  0.85774631     0.08470
H1322       H  0.46211592  0.18658560  0.85794763     0.08460
H1323       H  0.44042685  0.18014271  0.82750899     0.08460
H1324       H  0.47757090  0.17461997  0.82564939     0.05230
C1325       C  0.33192007  0.20959903  0.23272694    -0.20570
C1326       C  0.35963933  0.21141658  0.24196842    -0.07140
C1327       C  0.36629723  0.22995598  0.26408442     0.13730
C1328       C  0.34486001  0.24595174  0.27673791    -0.20630
C1329       C  0.31683772  0.24327869  0.26824582    -0.07150
C1330       C  0.31040126  0.22498257  0.24570503     0.13720
C1331       C  0.28115728  0.22097622  0.23468768    -0.23980
H1332       H  0.32698670  0.19582814  0.21529268     0.15000
H1333       H  0.34994284  0.26045381  0.29346938     0.15030
C1334       C  0.39601490  0.23313341  0.27399013    -0.23920
H1335       H  0.27590236  0.19836201  0.23466047     0.05250
H1336       H  0.28005637  0.22846875  0.21275982     0.08470
H1337       H  0.26508527  0.23208426  0.24733676     0.08470
H1338       H  0.40940688  0.24020067  0.25639506     0.08460
H1339       H  0.40398675  0.21273567  0.28180610     0.08460
H1340       H  0.39763529  0.24871811  0.29127197     0.05230
C1341       C  0.59782935  0.24309979  0.95336130    -0.20570
C1342       C  0.58812160  0.22773321  0.97626393    -0.07140
C1343       C  0.59784738  0.20018937  0.98052581     0.13730
C1344       C  0.61600818  0.18806968  0.96059954    -0.20630
C1345       C  0.62458038  0.20307070  0.93679400    -0.07150
C1346       C  0.61575676  0.23122880  0.93348915     0.13720
C1347       C  0.62347059  0.24853514  0.90827485    -0.23980
H1348       H  0.59055463  0.26446769  0.95052481     0.15000
H1349       H  0.62256480  0.16642715  0.96289250     0.15030
C1350       C  0.58794906  0.18320859  0.00502900    -0.23920
H1351       H  0.61257419  0.26916791  0.90827814     0.05250
H1352       H  0.61761802  0.23737842  0.88868897     0.08470
H1353       H  0.64620205  0.25287170  0.90842558     0.08470
H1354       H  0.56477995  0.18150888  0.00454382     0.08460
H1355       H  0.59443924  0.19353455  0.02483936     0.08460
H1356       H  0.59695978  0.16170811  0.00469786     0.05230
C1357       C  0.45556026  0.20886634  0.93856374    -0.20570
C1358       C  0.42734128  0.20312256  0.94327899    -0.07140
C1359       C  0.41619462  0.20650820  0.97045975     0.13730
C1360       C  0.43364152  0.21647602  0.99216979    -0.20630
C1361       C  0.46216878  0.22224685  0.98739340    -0.07150
C1362       C  0.47309054  0.21810540  0.95999020     0.13720
C1363       C  0.50265369  0.22496862  0.95210930    -0.23980
H1364       H  0.46394436  0.20614883  0.91757117     0.15000
H1365       H  0.42496089  0.21996248  0.01289419     0.15030
C1366       C  0.38625619  0.19915433  0.97657054    -0.23920
H1367       H  0.50745146  0.21964899  0.92992065     0.05250
H1368       H  0.51747336  0.21280382  0.96520234     0.08470
H1369       H  0.50554866  0.24782132  0.95434320     0.08470
H1370       H  0.38264565  0.17675805  0.97138739     0.08460
H1371       H  0.37204557  0.21237804  0.96379744     0.08460
H1372       H  0.38099222  0.20252897  0.99901296     0.05230
C1373       C  0.43436187  0.32897481  0.16505746    -0.20570
C1374       C  0.41251226  0.33991183  0.14859514    -0.07140
C1375       C  0.41431103  0.33732231  0.11907861     0.13730
C1376       C  0.43852746  0.32617116  0.10697520    -0.20630
C1377       C  0.46085877  0.31599571  0.12305798    -0.07150
C1378       C  0.45830489  0.31654346  0.15264223     0.13720
C1379       C  0.48073143  0.30467080  0.17120716    -0.23980
H1380       H  0.43268630  0.33020925  0.18767759     0.15000
H1381       H  0.43947515  0.32437413  0.08445507     0.15030
C1382       C  0.39025582  0.34458280  0.09989072    -0.23920
H1383       H  0.47538621  0.30708318  0.19374753     0.05250
H1384       H  0.50050050  0.31588078  0.16736086     0.08470
H1385       H  0.48363893  0.28202775  0.16687371     0.08470
H1386       H  0.38901647  0.36752732  0.09684670     0.08460
H1387       H  0.37029975  0.33648983  0.10849601     0.08460
H1388       H  0.39295732  0.33502682  0.07882581     0.05230
C1389       C  0.41121325  0.20040314  0.13273733    -0.20570
C1390       C  0.42282783  0.20371522  0.15959605    -0.07140
C1391       C  0.44846633  0.21776947  0.16281348     0.13730
C1392       C  0.46333609  0.22563125  0.13904128    -0.20630
C1393       C  0.45203491  0.22240774  0.11215005    -0.07150
C1394       C  0.42530311  0.21048419  0.10887124     0.13720
C1395       C  0.41216128  0.20790428  0.08036401    -0.23980
H1396       H  0.39127782  0.18993071  0.13049147     0.15000
H1397       H  0.48363519  0.23526905  0.14159634     0.15030
C1398       C  0.45969010  0.22546457  0.19133410    -0.23920
H1399       H  0.39133304  0.19775723  0.08145020     0.05250
H1400       H  0.42586817  0.19510802  0.06645393     0.08470
H1401       H  0.40936484  0.22902963  0.07111937     0.08470
H1402       H  0.46272744  0.20657132  0.20413965     0.08460
H1403       H  0.44459623  0.23961310  0.20215651     0.08460
H1404       H  0.48012166  0.23633683  0.19000815     0.05230
C1405       C  0.61219640  0.23823926  0.12038746    -0.20570
C1406       C  0.59590959  0.21952205  0.10487458    -0.07140
C1407       C  0.59829150  0.19066820  0.11025341     0.13730
C1408       C  0.61638004  0.18150891  0.13168297    -0.20630
C1409       C  0.63064987  0.20050442  0.14953509    -0.07150
C1410       C  0.62894674  0.22962148  0.14276905     0.13720
C1411       C  0.64291692  0.25279150  0.15903346    -0.23980
H1412       H  0.61061773  0.26042833  0.11590086     0.15000
H1413       H  0.61853899  0.15919413  0.13500002     0.15030
C1414       C  0.58196012  0.16953166  0.09351854    -0.23920
H1415       H  0.63564576  0.27388054  0.15248939     0.05250
H1416       H  0.66577470  0.25266857  0.15517665     0.08470
H1417       H  0.63762411  0.25109231  0.18137061     0.08470
H1418       H  0.58695879  0.17166645  0.07093869     0.08460
H1419       H  0.55918248  0.17286031  0.09678427     0.08460
H1420       H  0.58703276  0.14773761  0.09986415     0.05230
C1421       C  0.61006257  0.33643531  0.94595941    -0.20570
C1422       C  0.63887828  0.33500145  0.95132513    -0.07140
C1423       C  0.64838926  0.32401313  0.97703953     0.13730
C1424       C  0.62895439  0.31515394  0.99682314    -0.20630
C1425       C  0.59996659  0.31605136  0.99170761    -0.07150
C1426       C  0.59038676  0.32673529  0.96566166     0.13720
C1427       C  0.55976097  0.32801881  0.95825525    -0.23980
H1428       H  0.60297480  0.34555473  0.92645059     0.15000
H1429       H  0.63690639  0.30691582  0.01640954     0.15030
C1430       C  0.67898664  0.32156184  0.98466306    -0.23920
H1431       H  0.55629417  0.33760898  0.93738655     0.05250
H1432       H  0.54826474  0.34088458  0.97398256     0.08470
H1433       H  0.55097500  0.30657557  0.95748167     0.08470
H1434       H  0.68316665  0.33419237  0.00379920     0.08460
H1435       H  0.69330218  0.32866506  0.96792456     0.08460
H1436       H  0.68416410  0.29931496  0.98908009     0.05230
C1437       C  0.62299468  0.08265937  0.24162132    -0.20570
C1438       C  0.59541961  0.08727756  0.25097194    -0.07140
C1439       C  0.58391229  0.11485546  0.24888232     0.13730
C1440       C  0.60036072  0.13663479  0.23858957    -0.20630
C1441       C  0.62741779  0.13189149  0.22870222    -0.07150
C1442       C  0.63880550  0.10452240  0.22970375     0.13720
C1443       C  0.66720806  0.09833798  0.21745458    -0.23980
H1444       H  0.63193775  0.06180187  0.24308583     0.15000
H1445       H  0.59157120  0.15762082  0.23738047     0.15030
C1446       C  0.55449975  0.12305886  0.25702214    -0.23920
H1447       H  0.67286519  0.07583511  0.21941253     0.05250
H1448       H  0.68330062  0.11089852  0.22848193     0.08470
H1449       H  0.66730997  0.10377650  0.19484910     0.08470
H1450       H  0.55504118  0.13777121  0.27513223     0.08460
H1451       H  0.54100745  0.10541162  0.26230051     0.08460
H1452       H  0.54435938  0.13376496  0.23909852     0.05230
C1453       C  0.41368523  0.10757480  0.24139799    -0.20570
C1454       C  0.42885701  0.13113412  0.23269407    -0.07140
C1455       C  0.45844764  0.13038434  0.23442458     0.13730
C1456       C  0.47199315  0.10578915  0.24283703    -0.20630
C1457       C  0.45706939  0.08208924  0.25123496    -0.07150
C1458       C  0.42741642  0.08322992  0.25117165     0.13720
C1459       C  0.41019150  0.05885323  0.26101788    -0.23980
H1460       H  0.39102633  0.10823891  0.24051524     0.15000
H1461       H  0.49461245  0.10554129  0.24397791     0.15030
C1462       C  0.47606329  0.15584583  0.22899392    -0.23920
H1463       H  0.38744666  0.06273290  0.25803724     0.05250
H1464       H  0.41371856  0.05527678  0.28369969     0.08470
H1465       H  0.41602933  0.03969692  0.24902071     0.08470
H1466       H  0.46783091  0.17389765  0.24130521     0.08460
H1467       H  0.47631991  0.16064352  0.20634850     0.08460
H1468       H  0.49814133  0.15257128  0.23539606     0.05230
C1469       C  0.43773814  0.13317743  0.35491325    -0.20570
C1470       C  0.41366020  0.11769893  0.36090291    -0.07140
C1471       C  0.41444135  0.08814375  0.35834165     0.13730
C1472       C  0.43976355  0.07479931  0.35232175    -0.20630
C1473       C  0.46383014  0.09006851  0.34574632    -0.07150
C1474       C  0.46265372  0.11975491  0.34647248     0.13720
C1475       C  0.48743897  0.13740998  0.33854026    -0.23980
H1476       H  0.43697258  0.15581076  0.35675834     0.15000
H1477       H  0.43996853  0.05217417  0.35051842     0.15030
C1478       C  0.38874471  0.06998938  0.36026277    -0.23920
H1479       H  0.48339612  0.16002371  0.34250193     0.05250
H1480       H  0.49215533  0.13496862  0.31589753     0.08470
H1481       H  0.50594775  0.13109405  0.35099842     0.08470
H1482       H  0.36908448  0.08227781  0.36150596     0.08460
H1483       H  0.39032061  0.05618528  0.37884536     0.08460
H1484       H  0.38719769  0.05671320  0.34113780     0.05230
C1485       C  0.70190247  0.13601854  0.46817092    -0.20570
C1486       C  0.70573162  0.12445948  0.44126273    -0.07140
C1487       C  0.71971713  0.09863200  0.43801526     0.13730
C1488       C  0.72875691  0.08437505  0.46182886    -0.20630
C1489       C  0.72526168  0.09585541  0.48876793    -0.07150
C1490       C  0.71187676  0.12201480  0.49209915     0.13720
C1491       C  0.70755403  0.13457756  0.52076145    -0.23980
H1492       H  0.69100931  0.15588846  0.47040645     0.15000
H1493       H  0.73895579  0.06419828  0.45929842     0.15030
C1494       C  0.72531616  0.08624691  0.40940459    -0.23920
H1495       H  0.69626082  0.15494828  0.51972290     0.05250
H1496       H  0.72812077  0.13812988  0.53092916     0.08470
H1497       H  0.69506357  0.12007552  0.53383519     0.08470
H1498       H  0.73815308  0.10097124  0.39693080     0.08460
H1499       H  0.70525403  0.08240376  0.39838184     0.08460
H1500       H  0.73688268  0.06603731  0.41069060     0.05230
C1501       C  0.60894318  0.10680657  0.32938102    -0.20570
C1502       C  0.58495567  0.10187721  0.34552621    -0.07140
C1503       C  0.58416475  0.11141480  0.37354423     0.13730
C1504       C  0.60729841  0.12604396  0.38452926    -0.20630
C1505       C  0.63169064  0.13023986  0.36849642    -0.07150
C1506       C  0.63261690  0.11979445  0.34066564     0.13720
C1507       C  0.65908412  0.12004437  0.32332508    -0.23980
H1508       H  0.60988740  0.09894866  0.30812197     0.15000
H1509       H  0.60670714  0.13350230  0.40600936     0.15030
C1510       C  0.55909814  0.10609631  0.39180588    -0.23920
H1511       H  0.65669531  0.10804352  0.30346373     0.05250
H1512       H  0.67653912  0.11031257  0.33525061     0.08470
H1513       H  0.66457308  0.14172228  0.31750817     0.08470
H1514       H  0.55587598  0.08322235  0.39407100     0.08460
H1515       H  0.54021433  0.11562991  0.38225112     0.08460
H1516       H  0.56174550  0.11525960  0.41307099     0.05230
C1517       C  0.70143745  0.25583688  0.25989375    -0.20570
C1518       C  0.72930697  0.24790874  0.26483732    -0.07140
C1519       C  0.74011819  0.22439607  0.24996058     0.13730
C1520       C  0.72188145  0.20695483  0.23482032    -0.20630
C1521       C  0.69327124  0.21308002  0.23315031    -0.07150
C1522       C  0.68292667  0.23789866  0.24582289     0.13720
C1523       C  0.65205108  0.24435240  0.24678048    -0.23980
H1524       H  0.69343922  0.27497474  0.26918892     0.15000
H1525       H  0.73012569  0.18874564  0.22384122     0.15030
C1526       C  0.77092311  0.21836312  0.24762923    -0.23920
H1527       H  0.64750585  0.26406986  0.25843612     0.05250
H1528       H  0.64089018  0.22704679  0.25738101     0.08470
H1529       H  0.64368232  0.24661192  0.22547373     0.08470
H1530       H  0.77562015  0.19733404  0.25628091     0.08460
H1531       H  0.78374476  0.23438727  0.25831963     0.08460
H1532       H  0.77711061  0.21846181  0.22520007     0.05230
C1533       C  0.74135731  0.23716651  0.35898521    -0.20570
C1534       C  0.73884754  0.23642777  0.32949944    -0.07140
C1535       C  0.71664281  0.21981035  0.31973720     0.13730
C1536       C  0.71258938  0.19425347  0.33329698    -0.20630
C1537       C  0.71505556  0.19362615  0.36275485    -0.07150
C1538       C  0.72898228  0.21648411  0.37594718     0.13720
C1539       C  0.72987365  0.22038445  0.40729801    -0.23980
H1540       H  0.75178194  0.25452305  0.36892896     0.15000
H1541       H  0.70014163  0.17858113  0.32269845     0.15030
C1542       C  0.68889213  0.23475729  0.31657294    -0.23920
H1543       H  0.73787482  0.24141365  0.41314962     0.05250
H1544       H  0.74424776  0.20492855  0.41691571     0.08470
H1545       H  0.70852484  0.21845641  0.41625628     0.08470
H1546       H  0.67596333  0.22429775  0.30038813     0.08460
H1547       H  0.69155597  0.25736591  0.31241783     0.08460
H1548       H  0.67692836  0.23414113  0.33657638     0.05230
C1549       C  0.80511178  0.26043662  0.36883215    -0.20570
C1550       C  0.79934656  0.24877606  0.34235010    -0.07140
C1551       C  0.80879508  0.22109163  0.33664332     0.13730
C1552       C  0.82331946  0.20600226  0.35722451    -0.20630
C1553       C  0.82909022  0.21770046  0.38349139    -0.07150
C1554       C  0.81969448  0.24529770  0.38945468     0.13720
C1555       C  0.82394641  0.25860131  0.41776562    -0.23980
H1556       H  0.79716869  0.28114036  0.37381307     0.15000
H1557       H  0.83059694  0.18489848  0.35267915     0.15030
C1558       C  0.80439831  0.20739730  0.30864132    -0.23920
H1559       H  0.81326789  0.27928327  0.41940409     0.05250
H1560       H  0.84652143  0.26218546  0.42144410     0.08470
H1561       H  0.81527082  0.24486121  0.43429154     0.08470
H1562       H  0.81416314  0.22033897  0.29214645     0.08460
H1563       H  0.78172393  0.20486648  0.30476421     0.08460
H1564       H  0.81409385  0.18621625  0.30750474     0.05230
C1565       C  0.70779693  0.33793882  0.23388239    -0.20570
C1566       C  0.71506283  0.33295606  0.20586970    -0.07140
C1567       C  0.73697563  0.31387312  0.19964017     0.13730
C1568       C  0.75117005  0.30024968  0.22165393    -0.20630
C1569       C  0.74390379  0.30530885  0.24976566    -0.07150
C1570       C  0.72175131  0.32431621  0.25586585     0.13720
C1571       C  0.71171361  0.33026005  0.28528216    -0.23980
H1572       H  0.69088372  0.35245881  0.23864918     0.15000
H1573       H  0.76784691  0.28546015  0.21696154     0.15030
C1574       C  0.74523584  0.30787413  0.16976693    -0.23920
H1575       H  0.71390304  0.35293627  0.28997715     0.05250
H1576       H  0.72332595  0.31832987  0.30141232     0.08470
H1577       H  0.68927122  0.32463844  0.28708197     0.08470
H1578       H  0.75212572  0.32750272  0.15956653     0.08460
H1579       H  0.72706955  0.29924884  0.15815500     0.08460
H1580       H  0.76267709  0.29242799  0.16847314     0.05230
C1581       C  0.60663746  0.32780563  0.09655262    -0.20570
C1582       C  0.58479253  0.31754620  0.11329316    -0.07140
C1583       C  0.58810562  0.31807576  0.14282564     0.13730
C1584       C  0.61267895  0.32923039  0.15458576    -0.20630
C1585       C  0.63473259  0.33863811  0.13769447    -0.07150
C1586       C  0.63185617  0.33713015  0.10816745     0.13720
C1587       C  0.65538493  0.34343204  0.08804693    -0.23980
H1588       H  0.60496292  0.32671871  0.07393653     0.15000
H1589       H  0.61482156  0.33039944  0.17716751     0.15030
C1590       C  0.56572606  0.30752586  0.16217340    -0.23920
H1591       H  0.65863265  0.32524006  0.07376916     0.05250
H1592       H  0.67567812  0.34714540  0.09854527     0.08470
H1593       H  0.64983684  0.36203743  0.07529823     0.08470
H1594       H  0.56310029  0.28459085  0.15959153     0.08460
H1595       H  0.54590346  0.31856655  0.15740831     0.08460
H1596       H  0.57090896  0.31151042  0.18451655     0.05230
C1597       C  0.59085031  0.91929490  0.22762569    -0.20570
C1598       C  0.61953466  0.91649046  0.23376032    -0.07140
C1599       C  0.63290041  0.93877133  0.24809486     0.13730
C1600       C  0.61676018  0.96166223  0.25786738    -0.20630
C1601       C  0.58772872  0.96374674  0.25281802    -0.07150
C1602       C  0.57513094  0.94285780  0.23580637     0.13720
C1603       C  0.54517243  0.94457632  0.22606129    -0.23980
H1604       H  0.58032509  0.90259332  0.21644262     0.15000
H1605       H  0.62695826  0.97787865  0.27003495     0.15030
C1606       C  0.66415587  0.93937491  0.25238317    -0.23920
H1607       H  0.54000849  0.92761691  0.21093200     0.05250
H1608       H  0.54135457  0.96482225  0.21534470     0.08470
H1609       H  0.53088113  0.94223273  0.24401764     0.08470
H1610       H  0.67507279  0.93501059  0.23226639     0.08460
H1611       H  0.67064476  0.92395237  0.26836093     0.08460
H1612       H  0.67117434  0.96020120  0.26000265     0.05230
C1613       C  0.43729186  0.90272803  0.26201863    -0.20570
C1614       C  0.42291075  0.91093896  0.23795564    -0.07140
C1615       C  0.42765187  0.93780556  0.22656746     0.13730
C1616       C  0.44746671  0.95546540  0.23918311    -0.20630
C1617       C  0.46318766  0.94646487  0.26229388    -0.07150
C1618       C  0.45769338  0.91972914  0.27406931     0.13720
C1619       C  0.47331371  0.90833955  0.29909884    -0.23980
H1620       H  0.43388524  0.88191461  0.27032749     0.15000
H1621       H  0.45116077  0.97603878  0.23046311     0.15030
C1622       C  0.41232224  0.94826560  0.20109611    -0.23920
H1623       H  0.47190859  0.92322654  0.31688059     0.05250
H1624       H  0.49558458  0.90453078  0.29357421     0.08470
H1625       H  0.46464253  0.88808221  0.30632383     0.08470
H1626       H  0.39643077  0.93325956  0.19338447     0.08460
H1627       H  0.42752874  0.95216744  0.18396762     0.08460
H1628       H  0.40131439  0.96816787  0.20632554     0.05230
C1629       C  0.59383707  0.83684020  0.16511389    -0.20570
C1630       C  0.62264921  0.84122410  0.16276832    -0.07140
C1631       C  0.63647840  0.83414093  0.13761130     0.13730
C1632       C  0.62100351  0.82253365  0.11536789    -0.20630
C1633       C  0.59197828  0.81767924  0.11770638    -0.07150
C1634       C  0.57829420  0.82515078  0.14321042     0.13720
C1635       C  0.54748240  0.82077148  0.14823861    -0.23980
H1636       H  0.58344081  0.84242219  0.18459741     0.15000
H1637       H  0.63185064  0.81679640  0.09621701     0.15030
C1638       C  0.66732944  0.83929752  0.13402908    -0.23920
H1639       H  0.54065732  0.82861053  0.16912597     0.05250
H1640       H  0.54282132  0.79806811  0.14755722     0.08470
H1641       H  0.53511572  0.83226598  0.13229952     0.08470
H1642       H  0.67940966  0.82669295  0.14933053     0.08460
H1643       H  0.67180514  0.86185984  0.13741345     0.08460
H1644       H  0.67465109  0.83340216  0.11269395     0.05230
C1645       C  0.45483694  0.84304448  0.11943629    -0.20570
C1646       C  0.46963877  0.81844064  0.12627574    -0.07140
C1647       C  0.46337380  0.80484478  0.15213230     0.13730
C1648       C  0.44348800  0.81669404  0.17020082    -0.20630
C1649       C  0.42907191  0.84122831  0.16338824    -0.07150
C1650       C  0.43449942  0.85447955  0.13757494     0.13720
C1651       C  0.41818002  0.88003572  0.12866303    -0.23980
H1652       H  0.45875944  0.85314646  0.09955423     0.15000
H1653       H  0.43935671  0.80689441  0.19022390     0.15030
C1654       C  0.47672542  0.77758043  0.16129734    -0.23920
H1655       H  0.42394232  0.88667927  0.10716341     0.05250
H1656       H  0.42230108  0.89788991  0.14296998     0.08470
H1657       H  0.39545354  0.87531593  0.12884532     0.08470
H1658       H  0.49974814  0.77981684  0.16262043     0.08460
H1659       H  0.47112513  0.76050283  0.14652257     0.08460
H1660       H  0.46939565  0.77095014  0.18232117     0.05230
C1661       C  0.60721509  0.69746497  0.15972075    -0.20570
C1662       C  0.63350998  0.70972453  0.15560954    -0.07140
C1663       C  0.63651254  0.73105260  0.13545783     0.13730
C1664       C  0.61323939  0.73928174  0.11970662    -0.20630
C1665       C  0.58683192  0.72730306  0.12393950    -0.07150
C1666       C  0.58370732  0.70626865  0.14440417     0.13720
C1667       C  0.55603780  0.69240050  0.14955973    -0.23980
H1668       H  0.60523080  0.68063401  0.17473763     0.15000
H1669       H  0.61565039  0.75560527  0.10423701     0.15030
C1670       C  0.66430427  0.74473652  0.12988380    -0.23920
H1671       H  0.55790346  0.67497565  0.16478151     0.05250
H1672       H  0.54783415  0.68366404  0.12961012     0.08470
H1673       H  0.54108359  0.70791738  0.15842571     0.08470
H1674       H  0.68023261  0.72862394  0.12426210     0.08460
H1675       H  0.67108435  0.75642287  0.14879121     0.08460
H1676       H  0.66302803  0.75996925  0.11240960     0.05230
C1677       C  0.67785554  0.81351642  0.26518952    -0.20570
C1678       C  0.68580931  0.83395113  0.24576848    -0.07140
C1679       C  0.71448610  0.83873302  0.24081134     0.13730
C1680       C  0.73459819  0.82304076  0.25538716    -0.20630
C1681       C  0.72681075  0.80283621  0.27509534    -0.07150
C1682       C  0.69803255  0.79791126  0.28000761     0.13720
C1683       C  0.68792348  0.77643155  0.30053753    -0.23980
H1684       H  0.65579696  0.80967191  0.26874481     0.15000
H1685       H  0.75663593  0.82660401  0.25146813     0.15030
C1686       C  0.72383028  0.86047101  0.22010376    -0.23920
H1687       H  0.67462270  0.78678654  0.31668255     0.05250
H1688       H  0.70531804  0.76562334  0.31138269     0.08470
H1689       H  0.67534170  0.76042163  0.28934623     0.08470
H1690       H  0.71565813  0.88137202  0.22651488     0.08460
H1691       H  0.71577643  0.85518664  0.19892559     0.08460
H1692       H  0.74700423  0.86170921  0.21886696     0.05230
C1693       C  0.74908104  0.75458422  0.22864992    -0.20570
C1694       C  0.74739630  0.74710188  0.25697952    -0.07140
C1695       C  0.73184158  0.72310334  0.26460818     0.13730
C1696       C  0.71801192  0.70761341  0.24384056    -0.20630
C1697       C  0.71914199  0.71541183  0.21565551    -0.07150
C1698       C  0.73504609  0.73902524  0.20787858     0.13720
C1699       C  0.73737442  0.74762838  0.17769285    -0.23980
H1700       H  0.76132726  0.77268687  0.22283911     0.15000
H1701       H  0.70567443  0.68959525  0.24979184     0.15030
C1702       C  0.72899241  0.71330326  0.29446372    -0.23920
H1703       H  0.75119477  0.76606764  0.17515279     0.05250
H1704       H  0.71642299  0.75325833  0.16947700     0.08470
H1705       H  0.74619709  0.73004787  0.16510022     0.08470
H1706       H  0.74046321  0.72651241  0.30969905     0.08460
H1707       H  0.73710021  0.69154131  0.29619207     0.08460
H1708       H  0.70655303  0.71341591  0.30052787     0.05230
C1709       C  0.86713200  0.74046326  0.34833024    -0.20570
C1710       C  0.85762647  0.71681663  0.36284874    -0.07140
C1711       C  0.82925544  0.70898771  0.36065573     0.13730
C1712       C  0.81112702  0.72502855  0.34416390    -0.20630
C1713       C  0.82036164  0.74895818  0.33010085    -0.07150
C1714       C  0.84890367  0.75641637  0.33157884     0.13720
C1715       C  0.86094700  0.78024467  0.31507758    -0.23980
H1716       H  0.88907263  0.74603614  0.34944955     0.15000
H1717       H  0.78927855  0.71918816  0.34261248     0.15030
C1718       C  0.81774282  0.68425213  0.37634868    -0.23920
H1719       H  0.87768001  0.77214466  0.30099665     0.05250
H1720       H  0.87011044  0.79592438  0.32961921     0.08470
H1721       H  0.84510027  0.79081932  0.30186644     0.08470
H1722       H  0.82196237  0.68676459  0.39908800     0.08460
H1723       H  0.82749053  0.66451775  0.36869171     0.08460
H1724       H  0.79476404  0.68228723  0.37352026     0.05230
C1725       C  0.71584202  0.91476200  0.46282993    -0.20570
C1726       C  0.70572140  0.93051133  0.44021610    -0.07140
C1727       C  0.70549473  0.96012744  0.44220113     0.13730
C1728       C  0.71309808  0.97299853  0.46735830    -0.20630
C1729       C  0.72344541  0.95747646  0.49001763    -0.07150
C1730       C  0.72537291  0.92790420  0.48750318     0.13720
C1731       C  0.73708550  0.91004119  0.51068548    -0.23980
H1732       H  0.71623074  0.89210835  0.46116787     0.15000
H1733       H  0.71273121  0.99570347  0.46846295     0.15030
C1734       C  0.69890911  0.97905011  0.41779919    -0.23920
H1735       H  0.73531518  0.88735274  0.50577004     0.05250
H1736       H  0.72546725  0.91422882  0.53042226     0.08470
H1737       H  0.75963144  0.91457203  0.51374775     0.08470
H1738       H  0.67910316  0.99065547  0.42192841     0.08460
H1739       H  0.69723586  0.96762078  0.39763905     0.08460
H1740       H  0.71607344  0.99440282  0.41514035     0.05230
C1741       C  0.63169435  0.95881571  0.37045369    -0.20570
C1742       C  0.63161296  0.92945808  0.36924180    -0.07140
C1743       C  0.60745512  0.91561184  0.35939450     0.13730
C1744       C  0.58418827  0.93167023  0.35078316    -0.20630
C1745       C  0.58426172  0.96115274  0.35231989    -0.07150
C1746       C  0.60849648  0.97484102  0.36255866     0.13720
C1747       C  0.61092772  0.00633530  0.36448897    -0.23980
H1748       H  0.65032253  0.96942055  0.37770746     0.15000
H1749       H  0.56584202  0.92113685  0.34267308     0.15030
C1750       C  0.60569935  0.88411850  0.35867475    -0.23920
H1751       H  0.63158812  0.01296288  0.37277592     0.05250
H1752       H  0.59474897  0.01488607  0.37894488     0.08470
H1753       H  0.60862800  0.01570716  0.34339661     0.08470
H1754       H  0.61016149  0.87556048  0.37979317     0.08460
H1755       H  0.62087480  0.87534395  0.34336238     0.08460
H1756       H  0.58456091  0.87696429  0.35227946     0.05230
C1757       C  0.73544022  0.87247740  0.33946978    -0.20570
C1758       C  0.71447929  0.86461638  0.35842063    -0.07140
C1759       C  0.70871627  0.83601063  0.36244615     0.13730
C1760       C  0.72441638  0.81582323  0.34785074    -0.20630
C1761       C  0.74574477  0.82346696  0.32927196    -0.07150
C1762       C  0.75097175  0.85220305  0.32452733     0.13720
C1763       C  0.77229714  0.86215851  0.30365487    -0.23980
H1764       H  0.73956176  0.89452718  0.33619197     0.15000
H1765       H  0.71996042  0.79384110  0.35089455     0.15030
C1766       C  0.68603906  0.82680882  0.38226253    -0.23920
H1767       H  0.76177669  0.87528184  0.28762117     0.05250
H1768       H  0.78306150  0.84468039  0.29262283     0.08470
H1769       H  0.78832187  0.87495045  0.31455323     0.08470
H1770       H  0.66555012  0.83541925  0.37536466     0.08460
H1771       H  0.69065771  0.83452849  0.40373965     0.08460
H1772       H  0.68434414  0.80363030  0.38301506     0.05230
C1773       C  0.70745932  0.60544820  0.10937233    -0.20570
C1774       C  0.71865344  0.58262559  0.12411749    -0.07140
C1775       C  0.71979883  0.58429321  0.15380167     0.13730
C1776       C  0.71023947  0.60884676  0.16753228    -0.20630
C1777       C  0.70095107  0.63221889  0.15229833    -0.07150
C1778       C  0.70031059  0.63061864  0.12269037     0.13720
C1779       C  0.69509366  0.65611766  0.10467264    -0.23980
H1780       H  0.70718120  0.60482139  0.08683887     0.15000
H1781       H  0.71072214  0.61012266  0.19020135     0.15030
C1782       C  0.73118943  0.56057613  0.17114019    -0.23920
H1783       H  0.69983296  0.65187731  0.08226675     0.05250
H1784       H  0.70885880  0.67350892  0.11155483     0.08470
H1785       H  0.67293512  0.66291802  0.10573017     0.08470
H1786       H  0.75373837  0.55722287  0.16671171     0.08460
H1787       H  0.71949215  0.54115147  0.16651678     0.08460
H1788       H  0.72911232  0.56498485  0.19392236     0.05230
C1789       C  0.73755417  0.43509955  0.10687590    -0.20570
C1790       C  0.72484088  0.46144193  0.11052039    -0.07140
C1791       C  0.70101344  0.46385503  0.12777262     0.13730
C1792       C  0.69142802  0.44005489  0.14226138    -0.20630
C1793       C  0.70544668  0.41409861  0.13990343    -0.07150
C1794       C  0.72858884  0.41159780  0.12166185     0.13720
C1795       C  0.74360558  0.38403176  0.11721934    -0.23980
H1796       H  0.75513121  0.43287322  0.09276943     0.15000
H1797       H  0.67293473  0.44162663  0.15535548     0.15030
C1798       C  0.68549231  0.49122094  0.13023033    -0.23920
H1799       H  0.76054249  0.38569413  0.10136346     0.05250
H1800       H  0.72861284  0.36793276  0.10982993     0.08470
H1801       H  0.75335629  0.37710315  0.13710792     0.08470
H1802       H  0.67778385  0.49762795  0.10926475     0.08460
H1803       H  0.69971280  0.50755413  0.13837090     0.08460
H1804       H  0.66725899  0.48966541  0.14457880     0.05230
C1805       C  0.70624017  0.40146533  0.98177455    -0.20570
C1806       C  0.70531283  0.40822299  0.95319687    -0.07140
C1807       C  0.71364544  0.43515193  0.94463430     0.13730
C1808       C  0.72350077  0.45433682  0.96488004    -0.20630
C1809       C  0.72525165  0.44707284  0.99339935    -0.07150
C1810       C  0.71563371  0.42043977  0.00197356     0.13720
C1811       C  0.71462398  0.41172449  0.03238077    -0.23980
H1812       H  0.69944005  0.38093441  0.98839747     0.15000
H1813       H  0.73077457  0.47471323  0.95825688     0.15030
C1814       C  0.71176046  0.44376462  0.91442237    -0.23920
H1815       H  0.70316703  0.39174602  0.03516249     0.05250
H1816       H  0.70364287  0.42801551  0.04502419     0.08470
H1817       H  0.73604416  0.40828660  0.04065161     0.08470
H1818       H  0.68980856  0.44189864  0.90706946     0.08460
H1819       H  0.72545390  0.43014819  0.90134797     0.08460
H1820       H  0.71848902  0.46577933  0.91145930     0.05230
C1821       C  0.83829356  0.72226285  0.23530652    -0.20570
C1822       C  0.83517345  0.69354379  0.24019624    -0.07140
C1823       C  0.81636853  0.68462041  0.26121775     0.13730
C1824       C  0.80170342  0.70462916  0.27730227    -0.20630
C1825       C  0.80492706  0.73337101  0.27256109    -0.07150
C1826       C  0.82334072  0.74228902  0.25112594     0.13720
C1827       C  0.82760692  0.77274664  0.24423539    -0.23980
H1828       H  0.85250363  0.72911299  0.21903194     0.15000
H1829       H  0.78749619  0.69780625  0.29351314     0.15030
C1830       C  0.81115279  0.65396498  0.26619389    -0.23920
H1831       H  0.82164877  0.77649230  0.22208844     0.05250
H1832       H  0.85000951  0.77813374  0.24703263     0.08470
H1833       H  0.81502164  0.78714917  0.25755318     0.08470
H1834       H  0.83072234  0.64353165  0.27305409     0.08460
H1835       H  0.80366429  0.64394021  0.24655957     0.08460
H1836       H  0.79509218  0.65068129  0.28267702     0.05230
C1837       C  0.81662416  0.63892742  0.14625923    -0.20570
C1838       C  0.84508112  0.63475997  0.15232704    -0.07140
C1839       C  0.86117050  0.61868388  0.13279765     0.13730
C1840       C  0.84741652  0.60238113  0.11238583    -0.20630
C1841       C  0.81839329  0.60452511  0.10829022    -0.07150
C1842       C  0.80357285  0.62534959  0.12375099     0.13720
C1843       C  0.77340746  0.63218602  0.11840620    -0.23980
H1844       H  0.80369190  0.65156219  0.16002374     0.15000
H1845       H  0.85953770  0.58808906  0.09938356     0.15030
C1846       C  0.89270385  0.61906165  0.13189550    -0.23920
H1847       H  0.76541375  0.64938866  0.13206331     0.05250
H1848       H  0.76124838  0.61344546  0.12310070     0.08470
H1849       H  0.77037427  0.63866338  0.09631582     0.08470
H1850       H  0.90118217  0.59806106  0.13727935     0.08460
H1851       H  0.90170093  0.63511379  0.14606928     0.08460
H1852       H  0.89969656  0.62444633  0.11040308     0.05230
C1853       C  0.81621702  0.31566208  0.24764077    -0.20570
C1854       C  0.79848631  0.32419772  0.26957506    -0.07140
C1855       C  0.79637311  0.35301392  0.27637740     0.13730
C1856       C  0.81290008  0.37231531  0.26178423    -0.20630
C1857       C  0.83093684  0.36362561  0.24015929    -0.07150
C1858       C  0.83252335  0.33497330  0.23290457     0.13720
C1859       C  0.85185359  0.32464935  0.21007645    -0.23980
H1860       H  0.81735629  0.29362868  0.24211203     0.15000
H1861       H  0.81127486  0.39442691  0.26691875     0.15030
C1862       C  0.77655731  0.36423534  0.29827196    -0.23920
H1863       H  0.85127100  0.30148427  0.20790744     0.05250
H1864       H  0.87368630  0.33079422  0.21499404     0.08470
H1865       H  0.84565339  0.33376313  0.18966607     0.08470
H1866       H  0.78851620  0.37549749  0.31473182     0.08460
H1867       H  0.76427437  0.34752985  0.30838097     0.08460
H1868       H  0.76164263  0.37913108  0.28842742     0.05230
C1869       C  0.85766997  0.43122805  0.13424177    -0.20570
C1870       C  0.83923408  0.42533459  0.15649830    -0.07140
C1871       C  0.81130133  0.43506022  0.15522501     0.13730
C1872       C  0.80269780  0.45016321  0.13186033    -0.20630
C1873       C  0.82106321  0.45672023  0.10997863    -0.07150
C1874       C  0.84896438  0.44721556  0.11113328     0.13720
C1875       C  0.86946444  0.45405195  0.08831420    -0.23980
H1876       H  0.87925799  0.42424372  0.13555336     0.15000
H1877       H  0.78161550  0.45806055  0.13156268     0.15030
C1878       C  0.79083380  0.43166173  0.17913984    -0.23920
H1879       H  0.89058823  0.44531730  0.09275305     0.05250
H1880       H  0.87132266  0.47710698  0.08619577     0.08470
H1881       H  0.86212819  0.44495153  0.06828660     0.08470
H1882       H  0.79993767  0.44010340  0.19882589     0.08460
H1883       H  0.78540404  0.40931481  0.18180093     0.08460
H1884       H  0.77087021  0.44307105  0.17530817     0.05230
C1885       C  0.20466034  0.33543844  0.24274589    -0.20570
C1886       C  0.21674621  0.36198992  0.24152882    -0.07140
C1887       C  0.24194787  0.36726370  0.25597786     0.13730
C1888       C  0.25496491  0.34543644  0.27066107    -0.20630
C1889       C  0.24320497  0.31860721  0.27140633    -0.07150
C1890       C  0.21765427  0.31354434  0.25720485     0.13720
C1891       C  0.20415687  0.28510528  0.25539553    -0.23980
H1892       H  0.18525683  0.33156147  0.23164029     0.15000
H1893       H  0.27475262  0.34914641  0.28103409     0.15030
C1894       C  0.25499762  0.39585581  0.25613775    -0.23920
H1895       H  0.20234195  0.27869164  0.23307899     0.05250
H1896       H  0.21613097  0.26853256  0.26635474     0.08470
H1897       H  0.18276010  0.28624040  0.26442327     0.08470
H1898       H  0.23974231  0.41160122  0.26418202     0.08460
H1899       H  0.26138703  0.40140451  0.23461838     0.08460
H1900       H  0.27394073  0.39658754  0.26959043     0.05230
C1901       C  0.93157615  0.58867721  0.26598124    -0.20570
C1902       C  0.95760244  0.59067513  0.25240139    -0.07140
C1903       C  0.95989544  0.60721574  0.22813618     0.13730
C1904       C  0.93618201  0.62161196  0.21830185    -0.20630
C1905       C  0.91054168  0.62057727  0.23268760    -0.07150
C1906       C  0.90818054  0.60385070  0.25682308     0.13720
C1907       C  0.88108359  0.60160534  0.27280791    -0.23980
H1908       H  0.92972557  0.57590077  0.28454993     0.15000
H1909       H  0.93771308  0.63416266  0.19950347     0.15030
C1910       C  0.98701506  0.60949977  0.21240074    -0.23920
H1911       H  0.88266279  0.58625885  0.29015601     0.05250
H1912       H  0.86408632  0.59473398  0.25855172     0.08470
H1913       H  0.87559276  0.62216333  0.28226691     0.08470
H1914       H  0.99521022  0.58828749  0.20714271     0.08460
H1915       H  0.00224151  0.62096428  0.22551616     0.08460
H1916       H  0.98443547  0.62131253  0.19257692     0.05230
C1917       C  0.92032634  0.48400509  0.25295800    -0.20570
C1918       C  0.94773934  0.47334277  0.25344036    -0.07140
C1919       C  0.95287076  0.44524820  0.24516515     0.13730
C1920       C  0.93039742  0.42866956  0.23627391    -0.20630
C1921       C  0.90312661  0.43950056  0.23559575    -0.07150
C1922       C  0.89795589  0.46748352  0.24389274     0.13720
C1923       C  0.86881018  0.47976783  0.24358555    -0.23980
H1924       H  0.91639614  0.50529574  0.26005055     0.15000
H1925       H  0.93410348  0.40724633  0.22950688     0.15030
C1926       C  0.98168591  0.43229082  0.24663690    -0.23920
H1927       H  0.86844755  0.50165922  0.25159936     0.05250
H1928       H  0.85485192  0.46705224  0.25701519     0.08470
H1929       H  0.86049876  0.47996764  0.22189169     0.08470
H1930       H  0.98965848  0.43325069  0.26844651     0.08460
H1931       H  0.99613940  0.44363856  0.23254751     0.08460
H1932       H  0.98161208  0.40994819  0.24001898     0.05230
C1933       C  0.09926720  0.45268994  0.36583883    -0.20570
C1934       C  0.07668398  0.44422328  0.34892543    -0.07140
C1935       C  0.07330765  0.41519823  0.34279552     0.13730
C1936       C  0.09245358  0.39589258  0.35371582    -0.20630
C1937       C  0.11514820  0.40452465  0.36994785    -0.07150
C1938       C  0.11864671  0.43310425  0.37628269     0.13720
C1939       C  0.14301538  0.44279839  0.39368629    -0.23980
H1940       H  0.10237906  0.47477315  0.37009628     0.15000
H1941       H  0.08973265  0.37369373  0.34963599     0.15030
C1942       C  0.04998378  0.40391141  0.32460601    -0.23920
H1943       H  0.14298451  0.46592235  0.39636610     0.05250
H1944       H  0.16291692  0.43650223  0.38330433     0.08470
H1945       H  0.14205842  0.43314310  0.41476335     0.08470
H1946       H  0.05317651  0.41021654  0.30253278     0.08460
H1947       H  0.02929676  0.41145736  0.33204368     0.08460
H1948       H  0.04942401  0.38065433  0.32473934     0.05230
C1949       C  0.12631733  0.47677602  0.25437191    -0.20570
C1950       C  0.09822836  0.46908321  0.25107775    -0.07140
C1951       C  0.09162001  0.44327022  0.23791050     0.13730
C1952       C  0.11345975  0.42580272  0.22862824    -0.20630
C1953       C  0.14136149  0.43356538  0.23243381    -0.07150
C1954       C  0.14797120  0.45946950  0.24496826     0.13720
C1955       C  0.17788203  0.46881977  0.24851848    -0.23980
H1956       H  0.13140178  0.49608766  0.26517432     0.15000
H1957       H  0.10883954  0.40606636  0.21833537     0.15030
C1958       C  0.06188508  0.43340955  0.23460518    -0.23920
H1959       H  0.17919878  0.48945655  0.25929431     0.05250
H1960       H  0.18800706  0.47089006  0.22770516     0.08470
H1961       H  0.18963772  0.45324772  0.26115461     0.08470
H1962       H  0.05007997  0.44821199  0.22114517     0.08460
H1963       H  0.05161786  0.43203248  0.25541303     0.08460
H1964       H  0.06088681  0.41236503  0.22462522     0.05230
C1965       C  0.12029965  0.56394646  0.24724758    -0.20570
C1966       C  0.09333317  0.57498548  0.25110696    -0.07140
C1967       C  0.08881566  0.60394179  0.24638164     0.13730
C1968       C  0.11129162  0.62099725  0.23815580    -0.20630
C1969       C  0.13830741  0.60990164  0.23495598    -0.07150
C1970       C  0.14278677  0.58086901  0.23932839     0.13720
C1971       C  0.17113441  0.56702577  0.23642931    -0.23980
H1972       H  0.12411167  0.54202782  0.25157254     0.15000
H1973       H  0.10777695  0.64305655  0.23407096     0.15030
C1974       C  0.06054171  0.61709938  0.25058162    -0.23920
H1975       H  0.17663648  0.55642211  0.25634387     0.05250
H1976       H  0.18812393  0.58197831  0.23174648     0.08470
H1977       H  0.17044812  0.55110488  0.21939012     0.08470
H1978       H  0.05412159  0.61532785  0.27278811     0.08460
H1979       H  0.04541557  0.60618190  0.23689744     0.08460
H1980       H  0.06038242  0.63967674  0.24507855     0.05230
C1981       C  0.93476517  0.63852220  0.34696333    -0.20570
C1982       C  0.91644745  0.63172267  0.36847349    -0.07140
C1983       C  0.91465664  0.60393109  0.37786653     0.13730
C1984       C  0.93163607  0.58331556  0.36518582    -0.20630
C1985       C  0.95118457  0.59027207  0.34425574    -0.07150
C1986       C  0.95272191  0.61865257  0.33525544     0.13720
C1987       C  0.97224381  0.62981684  0.31339017    -0.23980
H1988       H  0.93614734  0.66018752  0.34026208     0.15000
H1989       H  0.92992039  0.56174252  0.37191521     0.15030
C1990       C  0.89475694  0.59618786  0.40096417    -0.23920
H1991       H  0.98213879  0.64936751  0.32115793     0.05250
H1992       H  0.96044405  0.63488850  0.29404577     0.08470
H1993       H  0.98945162  0.61563372  0.30862680     0.08470
H1994       H  0.87303456  0.60172338  0.39474373     0.08460
H1995       H  0.90019396  0.60774034  0.42043430     0.08460
H1996       H  0.89558501  0.57340566  0.40549971     0.05230
C1997       C  0.22401106  0.61877964  0.11151305    -0.20570
C1998       C  0.22473574  0.58925939  0.11099654    -0.07140
C1999       C  0.21445586  0.57444659  0.13454549     0.13730
C2000       C  0.20536008  0.58941200  0.15803251    -0.20630
C2001       C  0.20512247  0.61876605  0.15879696    -0.07150
C2002       C  0.21419611  0.63373990  0.13505042     0.13720
C2003       C  0.21303755  0.66526508  0.13400852    -0.23980
H2004       H  0.23183671  0.63032524  0.09368946     0.15000
H2005       H  0.19846856  0.57793741  0.17630348     0.15030
C2006       C  0.21285612  0.54291243  0.13574759    -0.23920
H2007       H  0.21857787  0.67319685  0.11289802     0.05250
H2008       H  0.22816858  0.67439684  0.14899057     0.08470
H2009       H  0.19156782  0.67273882  0.13909229     0.08470
H2010       H  0.23423691  0.53386718  0.13682976     0.08460
H2011       H  0.20142264  0.53477165  0.11720041     0.08460
H2012       H  0.20153712  0.53556850  0.15465505     0.05230
C2013       C  0.23987234  0.46719117  0.14554800    -0.20570
C2014       C  0.22609308  0.46792266  0.11945728    -0.07140
C2015       C  0.20459763  0.44835521  0.11400463     0.13730
C2016       C  0.19747479  0.42899995  0.13485260    -0.20630
C2017       C  0.21170434  0.42829361  0.16056258    -0.07150
C2018       C  0.23334758  0.44746172  0.16582993     0.13720
C2019       C  0.24934506  0.44768635  0.19304529    -0.23980
H2020       H  0.25645782  0.48190076  0.15014636     0.15000
H2021       H  0.18020027  0.41476036  0.13145872     0.15030
C2022       C  0.18911242  0.44751698  0.08657039    -0.23920
H2023       H  0.26468839  0.46505184  0.19405160     0.05250
H2024       H  0.26125924  0.42781327  0.19488367     0.08470
H2025       H  0.23479310  0.45014193  0.21104697     0.08470
H2026       H  0.20392729  0.44243140  0.06936007     0.08460
H2027       H  0.17888767  0.46807379  0.08267907     0.08460
H2028       H  0.17258179  0.43125828  0.08643915     0.05230
C2029       C  0.33745434  0.40423621  0.11070538    -0.20570
C2030       C  0.33887613  0.41045149  0.13948407    -0.07140
C2031       C  0.33212072  0.43785003  0.14866300     0.13730
C2032       C  0.32398751  0.45821466  0.12882049    -0.20630
C2033       C  0.32241396  0.45175158  0.10001710    -0.07150
C2034       C  0.32946658  0.42440775  0.09096210     0.13720
C2035       C  0.32872701  0.41642301  0.06037199    -0.23980
H2036       H  0.34246207  0.38322175  0.10362657     0.15000
H2037       H  0.31759673  0.47889039  0.13595539     0.15030
C2038       C  0.33342150  0.44554006  0.17923737    -0.23920
H2039       H  0.33621965  0.39462072  0.05680598     0.05250
H2040       H  0.34244949  0.43065792  0.04829883     0.08470
H2041       H  0.30704212  0.41786460  0.05226373     0.08470
H2042       H  0.35496251  0.44203950  0.18723945     0.08460
H2043       H  0.31858734  0.43244205  0.19127108     0.08460
H2044       H  0.32773125  0.46786693  0.18284261     0.05230
C2045       C  0.43482855  0.69335495  0.14017320    -0.20570
C2046       C  0.40737692  0.70328219  0.13650663    -0.07140
C2047       C  0.40116927  0.72091406  0.11380623     0.13730
C2048       C  0.42263411  0.72876682  0.09567063    -0.20630
C2049       C  0.45071340  0.72084188  0.10035981    -0.07150
C2050       C  0.45673316  0.70231469  0.12264520     0.13720
C2051       C  0.48609492  0.69299829  0.12892851    -0.23980
H2052       H  0.43917294  0.67901314  0.15717328     0.15000
H2053       H  0.41754153  0.74256698  0.07841520     0.15030
C2054       C  0.37190509  0.73176382  0.10880154    -0.23920
H2055       H  0.48696638  0.67852923  0.14705558     0.05250
H2056       H  0.49880206  0.71161078  0.13415142     0.08470
H2057       H  0.49512167  0.68195409  0.11046106     0.08470
H2058       H  0.36483563  0.74432228  0.12714032     0.08460
H2059       H  0.35745270  0.71400760  0.10556804     0.08460
H2060       H  0.37074200  0.74535035  0.09001618     0.05230
C2061       C  0.34189241  0.60545042  0.15572303    -0.20570
C2062       C  0.33501233  0.63228881  0.14615243    -0.07140
C2063       C  0.31730227  0.63560962  0.12284606     0.13730
C2064       C  0.30739767  0.61187454  0.10905041    -0.20630
C2065       C  0.31451591  0.58481091  0.11809360    -0.07150
C2066       C  0.33154194  0.58148385  0.14214937     0.13720
C2067       C  0.33951542  0.55302115  0.15318811    -0.23980
H2068       H  0.35572386  0.60331493  0.17358331     0.15000
H2069       H  0.29370310  0.61457388  0.09116899     0.15030
C2070       C  0.30914894  0.66419877  0.11224200    -0.23920
H2071       H  0.35421157  0.55457298  0.17113930     0.05250
H2072       H  0.34989823  0.54051271  0.13643208     0.08470
H2073       H  0.32060008  0.54193999  0.16067574     0.08470
H2074       H  0.32810725  0.67550425  0.10538706     0.08460
H2075       H  0.29852205  0.67630189  0.12913647     0.08460
H2076       H  0.29467187  0.66291145  0.09408541     0.05230
C2077       C  0.23470505  0.72880778  0.24699507    -0.20570
C2078       C  0.24826609  0.72189473  0.27212462    -0.07140
C2079       C  0.24637268  0.69398968  0.28202073     0.13730
C2080       C  0.22985229  0.67443658  0.26737090    -0.20630
C2081       C  0.21576623  0.68173160  0.24265338    -0.07150
C2082       C  0.21835408  0.70929854  0.23232313     0.13720
C2083       C  0.20302098  0.71860186  0.20636729    -0.23980
H2084       H  0.23611544  0.75008623  0.23932633     0.15000
H2085       H  0.22842577  0.65313466  0.27499145     0.15030
C2086       C  0.26204043  0.68373995  0.30728299    -0.23920
H2087       H  0.20613923  0.74123350  0.20218647     0.05250
H2088       H  0.18023315  0.71498400  0.20896674     0.08470
H2089       H  0.21072620  0.70681221  0.18781832     0.08470
H2090       H  0.27491318  0.70028291  0.31705681     0.08460
H2091       H  0.27619085  0.66626362  0.30103537     0.08460
H2092       H  0.24701060  0.67581941  0.32307514     0.05230
C2093       C  0.29861731  0.74932194  0.22563597    -0.20570
C2094       C  0.30306200  0.74205828  0.25376973    -0.07140
C2095       C  0.32238815  0.72037666  0.26011825     0.13730
C2096       C  0.33680509  0.70678124  0.23829959    -0.20630
C2097       C  0.33279329  0.71449548  0.21034749    -0.07150
C2098       C  0.31344812  0.73594788  0.20386218     0.13720
C2099       C  0.30817164  0.74436629  0.17397279    -0.23980
H2100       H  0.28337678  0.76541515  0.22067301     0.15000
H2101       H  0.35129782  0.68991536  0.24313287     0.15030
C2102       C  0.32827257  0.71078076  0.28954741    -0.23920
H2103       H  0.29217719  0.76128286  0.17254331     0.05250
H2104       H  0.30063496  0.72604968  0.16175842     0.08470
H2105       H  0.32785074  0.75214076  0.16450508     0.08470
H2106       H  0.31719688  0.72345781  0.30564744     0.08460
H2107       H  0.35105712  0.71211814  0.29380894     0.08460
H2108       H  0.32198266  0.68857214  0.29173737     0.05230
C2109       C  0.36707178  0.81550815  0.26321990    -0.20570
C2110       C  0.35803250  0.82981030  0.23921824    -0.07140
C2111       C  0.32994584  0.82755967  0.23065321     0.13730
C2112       C  0.31129450  0.81182785  0.24680945    -0.20630
C2113       C  0.31997531  0.79805282  0.27130147    -0.07150
C2114       C  0.34849172  0.79923878  0.27913949     0.13720
C2115       C  0.35971977  0.78284994  0.30352100    -0.23980
H2116       H  0.38884832  0.81698112  0.26938314     0.15000
H2117       H  0.28948455  0.81081589  0.24069304     0.15030
C2118       C  0.31947223  0.84240669  0.20492712    -0.23920
H2119       H  0.38267207  0.78548858  0.30591210     0.05250
H2120       H  0.35560889  0.76034501  0.30024939     0.08470
H2121       H  0.34981048  0.78974618  0.32325698     0.08470
H2122       H  0.33088586  0.83457540  0.18616518     0.08460
H2123       H  0.32287922  0.86529336  0.20718916     0.08460
H2124       H  0.29677275  0.83886964  0.20151623     0.05230
C2125       C  0.17897839  0.72710336  0.33304170    -0.20570
C2126       C  0.18725302  0.71110567  0.35620266    -0.07140
C2127       C  0.21549384  0.71142698  0.36478796     0.13730
C2128       C  0.23483798  0.72748820  0.34982274    -0.20630
C2129       C  0.22680060  0.74320001  0.32636837    -0.07150
C2130       C  0.19831944  0.74357814  0.31829951     0.13720
C2131       C  0.18784831  0.76240047  0.29539948    -0.23980
H2132       H  0.15707546  0.72746230  0.32713776     0.15000
H2133       H  0.25660185  0.72749779  0.35621465     0.15030
C2134       C  0.22540224  0.69433395  0.38934024    -0.23920
H2135       H  0.16501772  0.75995130  0.29188273     0.05250
H2136       H  0.19859816  0.75785175  0.27543630     0.08470
H2137       H  0.19162591  0.78442211  0.30136615     0.08470
H2138       H  0.22049911  0.67190549  0.38568808     0.08460
H2139       H  0.21493761  0.70160049  0.40884185     0.08460
H2140       H  0.24835110  0.69616772  0.39248153     0.05230
C2141       C  0.10130919  0.58946891  0.35551990    -0.20570
C2142       C  0.07340678  0.59667069  0.34928851    -0.07140
C2143       C  0.06479553  0.62493830  0.35170180     0.13730
C2144       C  0.08403342  0.64518909  0.36032167    -0.20630
C2145       C  0.11197236  0.63814758  0.36586885    -0.07150
C2146       C  0.12078547  0.60998834  0.36358525     0.13720
C2147       C  0.15055188  0.60165664  0.36984831    -0.23980
H2148       H  0.10816266  0.56791014  0.35298735     0.15000
H2149       H  0.07732035  0.66683079  0.36259830     0.15030
C2150       C  0.03544671  0.63400118  0.34492480    -0.23920
H2151       H  0.15390376  0.57874192  0.36728501     0.05250
H2152       H  0.15581244  0.60747063  0.39176300     0.08470
H2153       H  0.16496184  0.61257453  0.35534274     0.08470
H2154       H  0.02020886  0.62108301  0.35668014     0.08460
H2155       H  0.03212023  0.63171845  0.32208500     0.08460
H2156       H  0.03160611  0.65633315  0.35044045     0.05230
C2157       C  0.58239591  0.83791059  0.93554563    -0.20570
C2158       C  0.61110800  0.84120644  0.94056110    -0.07140
C2159       C  0.62173833  0.83602933  0.96767153     0.13730
C2160       C  0.60341900  0.82681498  0.98884913    -0.20630
C2161       C  0.57482031  0.82265461  0.98342951    -0.07150
C2162       C  0.56419659  0.82876002  0.95650019     0.13720
C2163       C  0.53360042  0.82583048  0.94966509    -0.23980
H2164       H  0.57417772  0.84237915  0.91486216     0.15000
H2165       H  0.61169932  0.82148316  0.00928806     0.15030
C2166       C  0.65219949  0.84038003  0.97432979    -0.23920
H2167       H  0.52876681  0.83287170  0.92805243     0.05250
H2168       H  0.52111573  0.83896634  0.96435494     0.08470
H2169       H  0.52725416  0.80361355  0.95115813     0.08470
H2170       H  0.65806975  0.86235668  0.96977355     0.08460
H2171       H  0.66534002  0.82596150  0.96153556     0.08460
H2172       H  0.65677479  0.83622678  0.99673948     0.05230
C2173       C  0.60809583  0.93501301  0.88292103    -0.20570
C2174       C  0.61785352  0.91212205  0.86665592    -0.07140
C2175       C  0.60888903  0.90987510  0.83848085     0.13730
C2176       C  0.59010059  0.92975000  0.82795580    -0.20630
C2177       C  0.57883844  0.95157171  0.84463682    -0.07150
C2178       C  0.58845997  0.95448575  0.87244696     0.13720
C2179       C  0.57735943  0.97714184  0.89152434    -0.23980
H2180       H  0.61487062  0.93684821  0.90451529     0.15000
H2181       H  0.58380848  0.92773373  0.80623536     0.15030
C2182       C  0.61733562  0.88583468  0.81947079    -0.23920
H2183       H  0.58635911  0.97564443  0.91291490     0.05250
H2184       H  0.55425505  0.97544547  0.89328754     0.08470
H2185       H  0.58289123  0.99789625  0.88300294     0.08470
H2186       H  0.61277356  0.86551376  0.82964612     0.08460
H2187       H  0.63983268  0.88722206  0.81406768     0.08460
H2188       H  0.60575603  0.88618635  0.79930016     0.05230
C2189       C  0.42982246  0.85324951  0.96307525    -0.20570
C2190       C  0.42175359  0.83646129  0.94019582    -0.07140
C2191       C  0.43484261  0.81020801  0.93595643     0.13730
C2192       C  0.45582249  0.80174551  0.95438260    -0.20630
C2193       C  0.46449689  0.81864238  0.97708043    -0.07150
C2194       C  0.45109683  0.84481218  0.98152428     0.13720
C2195       C  0.45939515  0.86436284  0.00493440    -0.23980
H2196       H  0.42012864  0.87368771  0.96575911     0.15000
H2197       H  0.46545053  0.78143175  0.95080694     0.15030
C2198       C  0.42803134  0.79143079  0.91132367    -0.23920
H2199       H  0.44781962  0.88458229  0.00394472     0.05250
H2200       H  0.48209736  0.86901001  0.00347942     0.08470
H2201       H  0.45459224  0.85478762  0.02550151     0.08470
H2202       H  0.43075466  0.80299217  0.89139543     0.08460
H2203       H  0.40627324  0.78370276  0.91304802     0.08460
H2204       H  0.44187686  0.77266671  0.91043209     0.05230
C2205       C  0.42708336  0.93095971  0.88024747    -0.20570
C2206       C  0.42297803  0.90540694  0.86617015    -0.07140
C2207       C  0.43977813  0.89864874  0.84280458     0.13730
C2208       C  0.46004720  0.91767310  0.83398519    -0.20630
C2209       C  0.46405957  0.94368248  0.84759333    -0.07150
C2210       C  0.44726575  0.95026482  0.87128988     0.13720
C2211       C  0.45023155  0.97730390  0.88739286    -0.23980
H2212       H  0.41474637  0.93548088  0.89882826     0.15000
H2213       H  0.47263764  0.91209748  0.81588345     0.15030
C2214       C  0.43723345  0.87092667  0.82768203    -0.23920
H2215       H  0.43614881  0.97816135  0.90591460     0.05250
H2216       H  0.44460216  0.99519172  0.87377321     0.08470
H2217       H  0.47205760  0.97950410  0.89502533     0.08470
H2218       H  0.41619454  0.86912267  0.81806754     0.08460
H2219       H  0.44058189  0.85343838  0.84257257     0.08460
H2220       H  0.45290505  0.86869383  0.81059573     0.05230
C2221       C  0.22549478  0.60171275  0.92904762    -0.20570
C2222       C  0.20494658  0.62043615  0.93827966    -0.07140
C2223       C  0.19462397  0.61802313  0.96598174     0.13730
C2224       C  0.20561955  0.59712086  0.98388627    -0.20630
C2225       C  0.22645886  0.57819283  0.97464096    -0.07150
C2226       C  0.23631622  0.58072391  0.94638750     0.13720
C2227       C  0.25820016  0.56157836  0.93348329    -0.23980
H2228       H  0.23266406  0.60312551  0.90752808     0.15000
H2229       H  0.19823668  0.59593383  0.00531453     0.15030
C2230       C  0.17251939  0.63790328  0.97683431    -0.23920
H2231       H  0.26074834  0.56512863  0.91064272     0.05250
H2232       H  0.25200953  0.53942567  0.93612923     0.08470
H2233       H  0.27897521  0.56545366  0.94309786     0.08470
H2234       H  0.15296336  0.63561845  0.96456503     0.08460
H2235       H  0.18006168  0.65977467  0.97508326     0.08460
H2236       H  0.16747710  0.63385152  0.99916304     0.05230
C2237       C  0.23222324  0.36633201  0.83138616    -0.20570
C2238       C  0.21416245  0.35922500  0.85339541    -0.07140
C2239       C  0.21371930  0.33146761  0.86324971     0.13730
C2240       C  0.23048739  0.31114503  0.85014386    -0.20630
C2241       C  0.24780219  0.31780496  0.82743972    -0.07150
C2242       C  0.24936038  0.34595992  0.81845071     0.13720
C2243       C  0.26917893  0.35526113  0.79586416    -0.23980
H2244       H  0.23320363  0.38791746  0.82451985     0.15000
H2245       H  0.22949984  0.28967174  0.85720926     0.15030
C2246       C  0.19531031  0.32323629  0.88746765    -0.23920
H2247       H  0.28383090  0.37098692  0.80463674     0.05250
H2248       H  0.25718805  0.36503584  0.77852882     0.08470
H2249       H  0.28182576  0.33773482  0.78715070     0.08470
H2250       H  0.17309221  0.32784950  0.88237562     0.08460
H2251       H  0.20135080  0.33517506  0.90652582     0.08460
H2252       H  0.19721403  0.30056004  0.89224241     0.05230
C2253       C  0.22704223  0.47402230  0.94119802    -0.20570
C2254       C  0.22152610  0.46908885  0.96960745    -0.07140
C2255       C  0.20558622  0.44532012  0.97733226     0.13730
C2256       C  0.19662307  0.42674060  0.95640826    -0.20630
C2257       C  0.20351356  0.43118383  0.92833655    -0.07150
C2258       C  0.21816105  0.45542574  0.92046359     0.13720
C2259       C  0.22426424  0.46179168  0.89015217    -0.23980
H2260       H  0.23922989  0.49206924  0.93522019     0.15000
H2261       H  0.18440323  0.40850915  0.96190585     0.15030
C2262       C  0.19923756  0.43835955  0.00743034    -0.23920
H2263       H  0.23574331  0.48180801  0.88777721     0.05250
H2264       H  0.20436344  0.46355210  0.87828943     0.08470
H2265       H  0.23729757  0.44479143  0.88088326     0.08470
H2266       H  0.18673541  0.45551473  0.01715354     0.08460
H2267       H  0.21906553  0.43528503  0.01915865     0.08460
H2268       H  0.18696074  0.41877199  0.00929134     0.05230
C2269       C  0.97428575  0.41568495  0.75185778    -0.20570
C2270       C  0.96626193  0.44415150  0.75316221    -0.07140
C2271       C  0.93977267  0.45214014  0.74233010     0.13730
C2272       C  0.92201832  0.43138481  0.73127294    -0.20630
C2273       C  0.93005948  0.40308217  0.73093953    -0.07150
C2274       C  0.95652084  0.39515686  0.74117629     0.13720
C2275       C  0.96593041  0.36491207  0.74121023    -0.23980
H2276       H  0.99449629  0.40912120  0.75985038     0.15000
H2277       H  0.90181722  0.43721628  0.72271075     0.15030
C2278       C  0.92986656  0.48216275  0.74243854    -0.23920
H2279       H  0.98699090  0.36232429  0.75073277     0.05250
H2280       H  0.96700425  0.35671131  0.71944081     0.08470
H2281       H  0.95091886  0.35219706  0.75345770     0.08470
H2282       H  0.94460914  0.49522508  0.73023890     0.08460
H2283       H  0.92843298  0.49018690  0.76423765     0.08460
H2284       H  0.90881622  0.48438793  0.73282335     0.05230
C2285       C  0.07114223  0.43223628  0.75302267    -0.20570
C2286       C  0.08574729  0.45753887  0.75627441    -0.07140
C2287       C  0.11494140  0.45758623  0.75117476     0.13730
C2288       C  0.12852459  0.43285298  0.74229106    -0.20630
C2289       C  0.11382273  0.40775262  0.73897155    -0.07150
C2290       C  0.08482861  0.40732203  0.74492740     0.13720
C2291       C  0.06849588  0.38039477  0.74405461    -0.23980
H2292       H  0.04903143  0.43163229  0.75796035     0.15000
H2293       H  0.15071387  0.43315616  0.73752971     0.15030
C2294       C  0.13162462  0.48393498  0.75374194    -0.23920
H2295       H  0.04649189  0.38357929  0.75097965     0.05250
H2296       H  0.07838238  0.36483884  0.75821771     0.08470
H2297       H  0.06796359  0.37177519  0.72246546     0.08470
H2298       H  0.13153077  0.49168941  0.77568046     0.08460
H2299       H  0.12206256  0.49961776  0.73975957     0.08460
H2300       H  0.15377059  0.48080141  0.74728493     0.05230
C2301       C  0.10883730  0.63932130  0.85833537    -0.20570
C2302       C  0.13216992  0.62384371  0.86726372    -0.07140
C2303       C  0.13223451  0.59439715  0.86407745     0.13730
C2304       C  0.10800759  0.58111605  0.85470031    -0.20630
C2305       C  0.08401184  0.59623919  0.84680778    -0.07150
C2306       C  0.08490506  0.62593845  0.84761298     0.13720
C2307       C  0.06065891  0.64380754  0.83843866    -0.23980
H2308       H  0.10922611  0.66196036  0.86017411     0.15000
H2309       H  0.10831999  0.55860318  0.85230130     0.15030
C2310       C  0.15828386  0.57689105  0.86873294    -0.23920
H2311       H  0.06590953  0.66644002  0.83888641     0.05250
H2312       H  0.04318552  0.64080011  0.85314774     0.08470
H2313       H  0.05424716  0.63851106  0.81676570     0.08470
H2314       H  0.16404111  0.57639713  0.89118112     0.08460
H2315       H  0.17590259  0.58553476  0.85636592     0.08460
H2316       H  0.15529793  0.55483399  0.86193421     0.05230
C2317       C  0.08091092  0.42702029  0.84793623    -0.20570
C2318       C  0.08193539  0.45651663  0.84906338    -0.07140
C2319       C  0.10764493  0.46963636  0.85560098     0.13730
C2320       C  0.13125634  0.45311944  0.86047594    -0.20630
C2321       C  0.13002295  0.42378948  0.86064033    -0.07150
C2322       C  0.10459041  0.41045773  0.85412209     0.13720
C2323       C  0.10219516  0.37904443  0.85431535    -0.23980
H2324       H  0.06146825  0.41691493  0.84220745     0.15000
H2325       H  0.15096421  0.46325053  0.86524266     0.15030
C2326       C  0.11106953  0.50097414  0.85690318    -0.23920
H2327       H  0.08049479  0.37218956  0.84974877     0.05250
H2328       H  0.10818369  0.37087144  0.87521356     0.08470
H2329       H  0.11612528  0.36976349  0.83809872     0.08470
H2330       H  0.09671122  0.51009140  0.87285728     0.08460
H2331       H  0.10695341  0.51014648  0.83606661     0.08460
H2332       H  0.13265055  0.50707412  0.86290169     0.05230
C2333       C  0.08240592  0.61153412  0.75876034    -0.20570
C2334       C  0.09519160  0.58518612  0.75583925    -0.07140
C2335       C  0.12250578  0.58326491  0.74471422     0.13730
C2336       C  0.13587498  0.60771507  0.73559489    -0.20630
C2337       C  0.12262292  0.63384641  0.73819046    -0.07150
C2338       C  0.09609562  0.63591640  0.75099617     0.13720
C2339       C  0.08166438  0.66352938  0.75680909    -0.23980
H2340       H  0.06163109  0.61331946  0.76763885     0.15000
H2341       H  0.15614649  0.60636221  0.72543295     0.15030
C2342       C  0.13671303  0.55552718  0.74070358    -0.23920
H2343       H  0.07679205  0.66523127  0.77948316     0.05250
H2344       H  0.06182195  0.66468032  0.74477106     0.08470
H2345       H  0.09478655  0.68180360  0.75150548     0.08470
H2346       H  0.12435679  0.54317790  0.72543697     0.08460
H2347       H  0.13818146  0.54452350  0.76106895     0.08460
H2348       H  0.15821492  0.55780154  0.73217544     0.05230
C2349       C  0.22683048  0.73578234  0.84495651    -0.20570
C2350       C  0.24334567  0.72569307  0.82262042    -0.07140
C2351       C  0.24482095  0.69635944  0.81795759     0.13730
C2352       C  0.22957615  0.67817832  0.83534049    -0.20630
C2353       C  0.21359467  0.68835167  0.85793921    -0.07150
C2354       C  0.21219429  0.71751773  0.86273776     0.13720
C2355       C  0.19514070  0.72934171  0.88660473    -0.23980
H2356       H  0.22574670  0.75816341  0.84874997     0.15000
H2357       H  0.23051757  0.65578370  0.83149120     0.15030
C2358       C  0.26273425  0.68339563  0.79543744    -0.23920
H2359       H  0.19620022  0.75256523  0.88747165     0.05250
H2360       H  0.20314661  0.72102530  0.90676266     0.08470
H2361       H  0.17288324  0.72327972  0.88407715     0.08470
H2362       H  0.27757832  0.66820064  0.80494849     0.08460
H2363       H  0.27524001  0.69912413  0.78417860     0.08460
H2364       H  0.24927580  0.67219574  0.78015066     0.05230
C2365       C  0.20009816  0.74894904  0.77349612    -0.20570
C2366       C  0.22803131  0.74433572  0.76551107    -0.07140
C2367       C  0.23399264  0.72608811  0.74264571     0.13730
C2368       C  0.21193268  0.71286489  0.72863258    -0.20630
C2369       C  0.18414496  0.71718148  0.73684716    -0.07150
C2370       C  0.17805793  0.73539834  0.75948795     0.13720
C2371       C  0.14834799  0.74014959  0.76901573    -0.23980
H2372       H  0.19561634  0.76291157  0.79093647     0.15000
H2373       H  0.21649851  0.69853842  0.71148880     0.15030
C2374       C  0.26330634  0.71975281  0.73248487    -0.23920
H2375       H  0.14719399  0.75506904  0.78692253     0.05250
H2376       H  0.13906064  0.72000977  0.77575264     0.08470
H2377       H  0.13578975  0.74885686  0.75150865     0.08470
H2378       H  0.26758552  0.69695376  0.73425175     0.08460
H2379       H  0.27960849  0.73117225  0.74435543     0.08460
H2380       H  0.26526364  0.72547670  0.71006405     0.05230
C2381       C  0.30800545  0.82240818  0.83812512    -0.20570
C2382       C  0.31798751  0.79704110  0.82660278    -0.07140
C2383       C  0.34475385  0.78696370  0.83481088     0.13730
C2384       C  0.36083154  0.80281427  0.85362552    -0.20630
C2385       C  0.35149833  0.82898205  0.86360302    -0.07150
C2386       C  0.32457754  0.83868511  0.85617476     0.13720
C2387       C  0.31330374  0.86608176  0.86731142    -0.23980
H2388       H  0.28720850  0.82965593  0.83266794     0.15000
H2389       H  0.38164335  0.79552392  0.85914433     0.15030
C2390       C  0.35817904  0.76123262  0.82211897    -0.23920
H2391       H  0.29155765  0.87006562  0.86008479     0.05250
H2392       H  0.32647325  0.88364890  0.86000446     0.08470
H2393       H  0.31324266  0.86573242  0.89056383     0.08470
H2394       H  0.34500082  0.75144806  0.80572388     0.08460
H2395       H  0.36263283  0.74573237  0.83879758     0.08460
H2396       H  0.37830657  0.76699042  0.81210093     0.05230
C2397       C  0.31315429  0.91155286  0.63101205    -0.20570
C2398       C  0.33856895  0.92061275  0.64269126    -0.07140
C2399       C  0.35378811  0.94089940  0.62690981     0.13730
C2400       C  0.33989505  0.95694937  0.60658159    -0.20630
C2401       C  0.31311206  0.94974385  0.59740951    -0.07150
C2402       C  0.30117412  0.92459136  0.60774790     0.13720
C2403       C  0.27565262  0.91105593  0.59504794    -0.23980
H2404       H  0.30176092  0.89424414  0.63977087     0.15000
H2405       H  0.35065380  0.97432515  0.59684330     0.15030
C2406       C  0.38514901  0.94343765  0.62753023    -0.23920
H2407       H  0.25704434  0.92419800  0.59899922     0.05250
H2408       H  0.27882133  0.90788439  0.57219917     0.08470
H2409       H  0.27124411  0.89021306  0.60425454     0.08470
H2410       H  0.39486074  0.92501840  0.63759129     0.08460
H2411       H  0.39141632  0.96329762  0.63793255     0.08460
H2412       H  0.39345916  0.94349315  0.60578345     0.05230
C2413       C  0.39465294  0.94176284  0.75126276    -0.20570
C2414       C  0.40165706  0.92851857  0.72606618    -0.07140
C2415       C  0.42880259  0.93164264  0.71491589     0.13730
C2416       C  0.44762998  0.94984551  0.72807947    -0.20630
C2417       C  0.44055200  0.96399712  0.75301174    -0.07150
C2418       C  0.41380444  0.95883929  0.76540213     0.13720
C2419       C  0.40494075  0.97013333  0.79375444    -0.23980
H2420       H  0.37390465  0.93865103  0.75990809     0.15000
H2421       H  0.46827530  0.95245387  0.71908381     0.15030
C2422       C  0.43838925  0.91492696  0.68984126    -0.23920
H2423       H  0.38349110  0.96341691  0.79954653     0.05250
H2424       H  0.40483355  0.99332589  0.79393555     0.08470
H2425       H  0.41917649  0.96206295  0.81022036     0.08470
H2426       H  0.42616081  0.92097080  0.67125043     0.08460
H2427       H  0.43560350  0.89223174  0.69390008     0.08460
H2428       H  0.46082074  0.91854590  0.68501782     0.05230
C2429       C  0.32524437  0.85864598  0.75644823    -0.20570
C2430       C  0.32761960  0.85514952  0.72723574    -0.07140
C2431       C  0.31917893  0.82894337  0.71574214     0.13730
C2432       C  0.30817604  0.80835106  0.73382512    -0.20630
C2433       C  0.30764634  0.81209256  0.76321459    -0.07150
C2434       C  0.32364854  0.83487943  0.77340001     0.13720
C2435       C  0.35209885  0.82856968  0.78576929    -0.23980
H2436       H  0.33297266  0.87773955  0.76601513     0.15000
H2437       H  0.30049133  0.78895737  0.72500891     0.15030
C2438       C  0.32206746  0.82189970  0.68507425    -0.23920
H2439       H  0.36937123  0.83832846  0.77364126     0.05250
H2440       H  0.35680119  0.80584225  0.78496817     0.08470
H2441       H  0.35368118  0.83735886  0.80709089     0.08470
H2442       H  0.34359353  0.82652738  0.67774279     0.08460
H2443       H  0.30643757  0.83372703  0.67265421     0.08460
H2444       H  0.31811884  0.79934113  0.68100582     0.05230
C2445       C  0.43095371  0.69596362  0.95609121    -0.20570
C2446       C  0.40477126  0.70935532  0.95467462    -0.07140
C2447       C  0.39862855  0.73166546  0.97314582     0.13730
C2448       C  0.41868764  0.73978703  0.99279672    -0.20630
C2449       C  0.44512300  0.72656006  0.99444599    -0.07150
C2450       C  0.45133982  0.70434229  0.97553447     0.13720
C2451       C  0.47918429  0.68936329  0.97532341    -0.23980
H2452       H  0.43512384  0.67831493  0.94227596     0.15000
H2453       H  0.41353192  0.75690056  0.00692671     0.15030
C2454       C  0.37052991  0.74629057  0.97305098    -0.23920
H2455       H  0.47990890  0.67229888  0.95941840     0.05250
H2456       H  0.48317261  0.67980615  0.99610298     0.08470
H2457       H  0.49603274  0.70434837  0.97010340     0.08470
H2458       H  0.35360032  0.73089490  0.97668121     0.08460
H2459       H  0.36717537  0.75679565  0.95264400     0.08460
H2460       H  0.36902016  0.76260032  0.98967929     0.05230
C2461       C  0.31780571  0.64191020  0.97578321    -0.20570
C2462       C  0.33766004  0.63435984  0.95569367    -0.07140
C2463       C  0.34975070  0.60733738  0.95611081     0.13730
C2464       C  0.34075002  0.58794548  0.97622854    -0.20630
C2465       C  0.32042283  0.59528908  0.99635645    -0.07150
C2466       C  0.30920486  0.62313143  0.99632246     0.13720
C2467       C  0.28833190  0.63395464  0.01773698    -0.23980
H2468       H  0.30960466  0.66316252  0.97586714     0.15000
H2469       H  0.34924311  0.56685038  0.97582659     0.15030
C2470       C  0.37189508  0.59898972  0.93515921    -0.23920
H2471       H  0.28496204  0.65692998  0.01605916     0.05250
H2472       H  0.29611423  0.62979471  0.03922896     0.08470
H2473       H  0.26757528  0.62415013  0.01445219     0.08470
H2474       H  0.39054883  0.61251524  0.93763888     0.08460
H2475       H  0.36352239  0.60131899  0.91360348     0.08460
H2476       H  0.37869107  0.57689004  0.93793548     0.05230
C2477       C  0.31094611  0.73597954  0.89233216    -0.20570
C2478       C  0.32560387  0.71123706  0.88556212    -0.07140
C2479       C  0.32517279  0.70114104  0.85776234     0.13730
C2480       C  0.31121227  0.71664028  0.83715938    -0.20630
C2481       C  0.29729992  0.74187602  0.84355241    -0.07150
C2482       C  0.29620577  0.75108941  0.87177319     0.13720
C2483       C  0.27950883  0.77635948  0.88091973    -0.23980
H2484       H  0.31087939  0.74344803  0.91382818     0.15000
H2485       H  0.31217955  0.70963771  0.81557999     0.15030
C2486       C  0.34043560  0.67463464  0.84952874    -0.23920
H2487       H  0.29368719  0.79209506  0.89043847     0.05250
H2488       H  0.26379411  0.77000888  0.89677905     0.08470
H2489       H  0.26807278  0.78629480  0.86336422     0.08470
H2490       H  0.33151243  0.65656333  0.86092571     0.08460
H2491       H  0.36299292  0.67656051  0.85470842     0.08460
H2492       H  0.33861426  0.67023356  0.82673126     0.05230
C2493       C  0.06512713  0.72496078  0.64998065    -0.20570
C2494       C  0.07155765  0.71964134  0.62165230    -0.07140
C2495       C  0.09606888  0.70404481  0.61520685     0.13730
C2496       C  0.11409997  0.69572308  0.63698698    -0.20630
C2497       C  0.10842212  0.70306189  0.66488456    -0.07150
C2498       C  0.08333438  0.71724719  0.67151847     0.13720
C2499       C  0.07580183  0.72450910  0.70134792    -0.23980
H2500       H  0.04626059  0.73655996  0.65529040     0.15000
H2501       H  0.13297382  0.68389303  0.63223950     0.15030
C2502       C  0.10417591  0.69737710  0.58557990    -0.23920
H2503       H  0.05576580  0.73636670  0.70274011     0.05250
H2504       H  0.09249154  0.73753792  0.71085670     0.08470
H2505       H  0.07338156  0.70501894  0.71351568     0.08470
H2506       H  0.10777967  0.71718613  0.57423176     0.08460
H2507       H  0.08729065  0.68522561  0.57530091     0.08460
H2508       H  0.12376629  0.68476764  0.58443404     0.05230
C2509       C  0.09377703  0.74259543  0.46135707    -0.20570
C2510       C  0.09422126  0.72760394  0.48653115    -0.07140
C2511       C  0.11013396  0.70271517  0.48832654     0.13730
C2512       C  0.12481875  0.69315636  0.46463889    -0.20630
C2513       C  0.12445428  0.70835227  0.43956168    -0.07150
C2514       C  0.10900474  0.73357217  0.43795810     0.13720
C2515       C  0.10754364  0.75046215  0.41136163    -0.23980
H2516       H  0.08138944  0.76153769  0.45990157     0.15000
H2517       H  0.13625113  0.67348616  0.46545224     0.15030
C2518       C  0.11101008  0.68582986  0.51472704    -0.23920
H2519       H  0.09353385  0.76899609  0.41365781     0.05250
H2520       H  0.09939977  0.73730132  0.39398002     0.08470
H2521       H  0.12865148  0.75826254  0.40583028     0.08470
H2522       H  0.08941048  0.68067447  0.52150276     0.08460
H2523       H  0.12175234  0.69816309  0.53112620     0.08460
H2524       H  0.12282004  0.66590560  0.51185082     0.05230
C2525       C  0.92509402  0.70329889  0.46456433    -0.20570
C2526       C  0.93218935  0.70522773  0.43623200    -0.07140
C2527       C  0.95898041  0.71474562  0.42843046     0.13730
C2528       C  0.97791209  0.72288668  0.44930088    -0.20630
C2529       C  0.97087743  0.72126622  0.47781488    -0.07150
C2530       C  0.94404231  0.71130932  0.48553703     0.13720
C2531       C  0.93472830  0.71001065  0.51565647    -0.23980
H2532       H  0.90465677  0.69536406  0.47024179     0.15000
H2533       H  0.99821333  0.73097171  0.44333238     0.15030
C2534       C  0.96753875  0.71632056  0.39806761    -0.23920
H2535       H  0.91292127  0.70232926  0.51764693     0.05250
H2536       H  0.93552795  0.73119049  0.52530718     0.08470
H2537       H  0.94851045  0.69541133  0.52733924     0.08470
H2538       H  0.95297750  0.73040062  0.38663782     0.08460
H2539       H  0.96695402  0.69512918  0.38839198     0.08460
H2540       H  0.98909297  0.72456418  0.39564032     0.05230
C2541       C  0.21769719  0.84085108  0.73967682    -0.20570
C2542       C  0.21363733  0.83161972  0.71203715    -0.07140
C2543       C  0.22710038  0.80672611  0.70294971     0.13730
C2544       C  0.24386285  0.79152825  0.72180828    -0.20630
C2545       C  0.24758945  0.80035380  0.74969601    -0.07150
C2546       C  0.23430128  0.82547942  0.75860775     0.13720
C2547       C  0.23722196  0.83592263  0.78827413    -0.23980
H2548       H  0.20751162  0.86004086  0.74656410     0.15000
H2549       H  0.25438099  0.77282017  0.71455906     0.15030
C2550       C  0.22434209  0.79643180  0.67318514    -0.23920
H2551       H  0.22452873  0.85513597  0.79209216     0.05250
H2552       H  0.25939927  0.84112052  0.79249639     0.08470
H2553       H  0.23015868  0.81958698  0.80312643     0.08470
H2554       H  0.23151434  0.81288431  0.65852590     0.08460
H2555       H  0.20222322  0.79122585  0.66859802     0.08460
H2556       H  0.23711479  0.77726829  0.66934281     0.05230
C2557       C  0.13799134  0.81568283  0.63284872    -0.20570
C2558       C  0.13069146  0.83984071  0.64787357    -0.07140
C2559       C  0.10454827  0.85289181  0.64246037     0.13730
C2560       C  0.08688147  0.84184049  0.62162086    -0.20630
C2561       C  0.09428620  0.81770262  0.60620486    -0.07150
C2562       C  0.12039548  0.80429012  0.61235823     0.13720
C2563       C  0.13047373  0.77781975  0.59796020    -0.23980
H2564       H  0.15827837  0.80609212  0.63655823     0.15000
H2565       H  0.06688547  0.85197339  0.61783103     0.15030
C2566       C  0.09441453  0.87819235  0.65861662    -0.23920
H2567       H  0.15161140  0.77124578  0.60514480     0.05250
H2568       H  0.13184745  0.78107674  0.57503100     0.08470
H2569       H  0.11615572  0.76033956  0.60281992     0.08470
H2570       H  0.09193551  0.89618572  0.64416649     0.08460
H2571       H  0.10882183  0.88428022  0.67575368     0.08460
H2572       H  0.07382819  0.87356869  0.66830676     0.05230
C2573       C  0.20974163  0.93742508  0.66252086    -0.20570
C2574       C  0.19996789  0.91384569  0.64786763    -0.07140
C2575       C  0.19877323  0.91460042  0.61822626     0.13730
C2576       C  0.20471372  0.93948382  0.60439266    -0.20630
C2577       C  0.21579004  0.96265235  0.61860893    -0.07150
C2578       C  0.21845668  0.96160913  0.64816515     0.13720
C2579       C  0.22984109  0.98597837  0.66468156    -0.23980
H2580       H  0.21063110  0.93685613  0.68519807     0.15000
H2581       H  0.20361046  0.93955804  0.58175872     0.15030
C2582       C  0.19326339  0.88912602  0.60014595    -0.23920
H2583       H  0.22847783  0.98230044  0.68759981     0.05250
H2584       H  0.21766846  0.00523446  0.65982877     0.08470
H2585       H  0.25221809  0.98925613  0.65952544     0.08470
H2586       H  0.17321476  0.89189383  0.58872262     0.08460
H2587       H  0.19264025  0.86933981  0.61212578     0.08460
H2588       H  0.21044093  0.88663290  0.58459987     0.05230
C2589       C  0.21189545  0.83814941  0.35572935    -0.20570
C2590       C  0.21308648  0.83040687  0.38391053    -0.07140
C2591       C  0.22979085  0.80732072  0.39195225     0.13730
C2592       C  0.24495919  0.79243767  0.37142183    -0.20630
C2593       C  0.24339743  0.79987520  0.34304138    -0.07150
C2594       C  0.22654964  0.82305312  0.33513217     0.13720
C2595       C  0.22311756  0.83234812  0.30520124    -0.23980
H2596       H  0.19896470  0.85586078  0.34967447     0.15000
H2597       H  0.25822277  0.77504864  0.37754300     0.15030
C2598       C  0.23191781  0.79869989  0.42217163    -0.23920
H2599       H  0.20057870  0.83251474  0.29958660     0.05250
H2600       H  0.23412617  0.81853504  0.29000698     0.08470
H2601       H  0.23104953  0.85399953  0.30297279     0.08470
H2602       H  0.21098577  0.79263862  0.43011595     0.08460
H2603       H  0.23998590  0.81642190  0.43490848     0.08460
H2604       H  0.24629718  0.78054151  0.42487117     0.05230
C2605       C  0.13498122  0.83276547  0.47707338    -0.20570
C2606       C  0.13109027  0.83846158  0.44863758    -0.07140
C2607       C  0.10472251  0.83428947  0.43633097     0.13730
C2608       C  0.08278823  0.82388858  0.45279682    -0.20630
C2609       C  0.08664007  0.81741641  0.48136093    -0.07150
C2610       C  0.11330952  0.82226605  0.49365670     0.13720
C2611       C  0.11977371  0.81619334  0.52394239    -0.23980
H2612       H  0.15535678  0.83654206  0.48631967     0.15000
H2613       H  0.06265348  0.82031050  0.44303672     0.15030
C2614       C  0.09969951  0.84114682  0.40599866    -0.23920
H2615       H  0.14150395  0.82205285  0.52966565     0.05250
H2616       H  0.11774301  0.79344741  0.52786995     0.08470
H2617       H  0.10546487  0.82837701  0.53777400     0.08470
H2618       H  0.11362552  0.82812695  0.39253230     0.08460
H2619       H  0.10412594  0.86363565  0.40229858     0.08460
H2620       H  0.07771579  0.83704036  0.39974191     0.05230
C2621       C  0.19925378  0.91392750  0.47584230    -0.20570
C2622       C  0.19901507  0.91436599  0.44652215    -0.07140
C2623       C  0.20620028  0.93927679  0.43246300     0.13730
C2624       C  0.21355104  0.96312237  0.44830591    -0.20630
C2625       C  0.21308458  0.96280486  0.47778453    -0.07150
C2626       C  0.20572647  0.93765138  0.49167338     0.13720
C2627       C  0.20530355  0.93486035  0.52315555    -0.23980
H2628       H  0.19396459  0.89465835  0.48651779     0.15000
H2629       H  0.21964796  0.98213349  0.43765284     0.15030
C2630       C  0.20535035  0.94107799  0.40099713    -0.23920
H2631       H  0.19926217  0.91349796  0.52991780     0.05250
H2632       H  0.18973750  0.94964283  0.53229626     0.08470
H2633       H  0.22640040  0.93888974  0.53183830     0.08470
H2634       H  0.18417359  0.93544468  0.39334100     0.08460
H2635       H  0.22107844  0.92665728  0.39162339     0.08460
H2636       H  0.21012473  0.96255180  0.39362438     0.05230
C2637       C  0.93938086  0.62195552  0.87495019    -0.20570
C2638       C  0.91205926  0.61551750  0.86631821    -0.07140
C2639       C  0.90797151  0.59351741  0.84682624     0.13730
C2640       C  0.93121277  0.57844920  0.83657619    -0.20630
C2641       C  0.95856301  0.58503491  0.84494650    -0.07150
C2642       C  0.96265738  0.60716272  0.86412655     0.13720
C2643       C  0.99162791  0.61525241  0.87267127    -0.23980
H2644       H  0.94247581  0.63860458  0.89013912     0.15000
H2645       H  0.92801445  0.56165054  0.82158337     0.15030
C2646       C  0.87904596  0.58562121  0.83713210    -0.23920
H2647       H  0.99162543  0.63336326  0.88737877     0.05250
H2648       H  0.00307263  0.62104279  0.85346627     0.08470
H2649       H  0.00232409  0.59726450  0.88281735     0.08470
H2650       H  0.86908370  0.60364600  0.82635605     0.08460
H2651       H  0.86604093  0.57959147  0.85539909     0.08460
H2652       H  0.87958357  0.56769051  0.82220093     0.05230
C2653       C  0.84877757  0.58724757  0.94769298    -0.20570
C2654       C  0.84347407  0.61606163  0.94466792    -0.07140
C2655       C  0.82925016  0.63021477  0.96679924     0.13730
C2656       C  0.81830473  0.61463836  0.98934299    -0.20630
C2657       C  0.82239722  0.58546704  0.99145180    -0.07150
C2658       C  0.83972083  0.57212882  0.97106067     0.13720
C2659       C  0.84867270  0.54185757  0.97284184    -0.23980
H2660       H  0.85972221  0.57600792  0.93118389     0.15000
H2661       H  0.80604611  0.62538277  0.00526386     0.15030
C2662       C  0.82639896  0.66167850  0.96776730    -0.23920
H2663       H  0.86420485  0.53613338  0.95641111     0.05250
H2664       H  0.83047072  0.52820753  0.96958657     0.08470
H2665       H  0.85863289  0.53769771  0.99341442     0.08470
H2666       H  0.81000173  0.66899038  0.95313894     0.08460
H2667       H  0.84675259  0.67156420  0.96271829     0.08460
H2668       H  0.82008990  0.66908335  0.98896785     0.05230
C2669       C  0.80970680  0.36112058  0.84250789    -0.20570
C2670       C  0.83454635  0.35300532  0.85605306    -0.07140
C2671       C  0.84540619  0.32581550  0.85201024     0.13730
C2672       C  0.83034467  0.30683603  0.83570495    -0.20630
C2673       C  0.80471481  0.31428022  0.82338321    -0.07150
C2674       C  0.79485204  0.34214444  0.82570271     0.13720
C2675       C  0.76900372  0.35237835  0.81083581    -0.23980
H2676       H  0.80196821  0.38239908  0.84498528     0.15000
H2677       H  0.83755714  0.28536754  0.83430863     0.15030
C2678       C  0.87187647  0.31619894  0.86628673    -0.23920
H2679       H  0.75338857  0.35987237  0.82645581     0.05250
H2680       H  0.77458818  0.37000762  0.79686774     0.08470
H2681       H  0.75922738  0.33587636  0.79774301     0.08470
H2682       H  0.86971139  0.31886418  0.88931250     0.08460
H2683       H  0.88995111  0.32854988  0.85879208     0.08460
H2684       H  0.87648975  0.29377249  0.86187603     0.05230
C2685       C  0.93356088  0.42899775  0.87793088    -0.20570
C2686       C  0.90810068  0.42412735  0.86407411    -0.07140
C2687       C  0.90190931  0.43832732  0.83894876     0.13730
C2688       C  0.92130174  0.45710672  0.82844248    -0.20630
C2689       C  0.94648481  0.46262487  0.84245785    -0.07150
C2690       C  0.95307419  0.44807780  0.86725086     0.13720
C2691       C  0.97982722  0.45337801  0.88299433    -0.23980
H2692       H  0.93780360  0.41832008  0.89746948     0.15000
H2693       H  0.91651637  0.46786067  0.80907408     0.15030
C2694       C  0.87431695  0.43515434  0.82379772    -0.23920
H2695       H  0.98083576  0.44109376  0.90266693     0.05250
H2696       H  0.98129529  0.47593759  0.88856119     0.08470
H2697       H  0.99806574  0.44720475  0.86988142     0.08470
H2698       H  0.85669693  0.43972139  0.83834053     0.08460
H2699       H  0.87228031  0.41366060  0.81519000     0.08460
H2700       H  0.87248049  0.44976375  0.80584274     0.05230
C2701       C  0.84826488  0.42582774  0.96096684    -0.20570
C2702       C  0.83464102  0.42179003  0.93515365    -0.07140
C2703       C  0.80976896  0.43674844  0.92936323     0.13730
C2704       C  0.79963481  0.45581698  0.94919115    -0.20630
C2705       C  0.81363495  0.46068224  0.97463184    -0.07150
C2706       C  0.83790410  0.44503396  0.98092819     0.13720
C2707       C  0.85339673  0.44925961  0.00796774    -0.23980
H2708       H  0.86763141  0.41462352  0.96502356     0.15000
H2709       H  0.78072591  0.46749635  0.94444460     0.15030
C2710       C  0.79466133  0.43414784  0.90169248    -0.23920
H2711       H  0.87256863  0.43603292  0.00903465     0.05250
H2712       H  0.83957174  0.44340694  0.02562608     0.08470
H2713       H  0.85966829  0.47152968  0.01015855     0.08470
H2714       H  0.78611182  0.41274688  0.89918006     0.08460
H2715       H  0.80919708  0.43873742  0.88416397     0.08460
H2716       H  0.77677032  0.44903263  0.90022646     0.05230
C2717       C  0.84525264  0.93303656  0.64721160    -0.20570
C2718       C  0.83002453  0.90841597  0.65232306    -0.07140
C2719       C  0.80461444  0.90386048  0.63799254     0.13730
C2720       C  0.79600980  0.92314673  0.61783558    -0.20630
C2721       C  0.81178972  0.94708735  0.61177342    -0.07150
C2722       C  0.83628204  0.95260227  0.62717661     0.13720
C2723       C  0.85366057  0.97811142  0.62149907    -0.23980
H2724       H  0.86498642  0.93617561  0.65793382     0.15000
H2725       H  0.77678018  0.91932007  0.60641818     0.15030
C2726       C  0.78724966  0.87796265  0.64250736    -0.23920
H2727       H  0.87285190  0.97852424  0.63460222     0.05250
H2728       H  0.84122428  0.99721603  0.62636976     0.08470
H2729       H  0.86010364  0.97835970  0.59913366     0.08470
H2730       H  0.77933005  0.87754599  0.66434081     0.08460
H2731       H  0.80000523  0.85888857  0.63825387     0.08460
H2732       H  0.76873324  0.87741310  0.62846040     0.05230
C2733       C  0.92614131  0.85263776  0.63960317    -0.20570
C2734       C  0.90270388  0.83619969  0.64608986    -0.07140
C2735       C  0.89902729  0.81032624  0.63220688     0.13730
C2736       C  0.91899795  0.80148491  0.61261163    -0.20630
C2737       C  0.94281527  0.81761566  0.60618929    -0.07150
C2738       C  0.94624953  0.84377761  0.61987705     0.13720
C2739       C  0.97055525  0.86276460  0.61372800    -0.23980
H2740       H  0.92840879  0.87285463  0.64978332     0.15000
H2741       H  0.91590162  0.78137590  0.60248675     0.15030
C2742       C  0.87357881  0.79231595  0.63690110    -0.23920
H2743       H  0.96874784  0.88301874  0.62517154     0.05250
H2744       H  0.97127574  0.86743381  0.59097113     0.08470
H2745       H  0.99044800  0.85271619  0.62038402     0.08470
H2746       H  0.85421659  0.80470235  0.63313853     0.08460
H2747       H  0.87350791  0.78406249  0.65855288     0.08460
H2748       H  0.87324845  0.77392163  0.62255079     0.05230
C2749       C  0.81163416  0.81163588  0.40021763    -0.20570
C2750       C  0.82996546  0.83330092  0.39297806    -0.07140
C2751       C  0.83302029  0.84056624  0.36453915     0.13730
C2752       C  0.81815437  0.82575063  0.34397697    -0.20630
C2753       C  0.79995033  0.80391001  0.35093416    -0.07150
C2754       C  0.79628699  0.79703952  0.37956433     0.13720
C2755       C  0.77597404  0.77488649  0.38863229    -0.23980
H2756       H  0.80912473  0.80636743  0.42213107     0.15000
H2757       H  0.82108917  0.83102057  0.32215004     0.15030
C2758       C  0.85231240  0.86379975  0.35582198    -0.23920
H2759       H  0.77575814  0.77244635  0.41175521     0.05250
H2760       H  0.78160610  0.75440214  0.37939557     0.08470
H2761       H  0.75454839  0.78058607  0.38201559     0.08470
H2762       H  0.87398472  0.85897294  0.36273397     0.08460
H2763       H  0.84534314  0.88386460  0.36549294     0.08460
H2764       H  0.85254651  0.86655540  0.33273214     0.05230
C2765       C  0.84890205  0.92177644  0.48480809    -0.20570
C2766       C  0.84241746  0.91776679  0.45630593    -0.07140
C2767       C  0.82757617  0.93930377  0.44223978     0.13730
C2768       C  0.81747900  0.96248707  0.45771083    -0.20630
C2769       C  0.82292255  0.96563641  0.48658650    -0.07150
C2770       C  0.84084578  0.94585295  0.49961094     0.13720
C2771       C  0.85179726  0.94931254  0.52904974    -0.23980
H2772       H  0.86021538  0.90563484  0.49604055     0.15000
H2773       H  0.80463827  0.97797517  0.44718305     0.15030
C2774       C  0.82287725  0.93879772  0.41100955    -0.23920
H2775       H  0.86790489  0.93327709  0.53421898     0.05250
H2776       H  0.83472611  0.94683353  0.54433567     0.08470
H2777       H  0.86171949  0.97015027  0.53148804     0.08470
H2778       H  0.80616295  0.92384574  0.40539830     0.08460
H2779       H  0.84262252  0.93325005  0.39995735     0.08460
H2780       H  0.81598229  0.95962396  0.40327021     0.05230
C2781       C  0.93762178  0.84469737  0.45476842    -0.20570
C2782       C  0.90941353  0.84067847  0.46173674    -0.07140
C2783       C  0.90253726  0.82801424  0.48744680     0.13730
C2784       C  0.92397278  0.81870984  0.50511622    -0.20630
C2785       C  0.95234305  0.82134647  0.49775884    -0.07150
C2786       C  0.95925225  0.83483445  0.47229160     0.13720
C2787       C  0.98910319  0.83764078  0.46271440    -0.23980
H2788       H  0.94267708  0.85525109  0.43538021     0.15000
H2789       H  0.91848284  0.80837489  0.52452659     0.15030
C2790       C  0.87247113  0.82430643  0.49629783    -0.23920
H2791       H  0.99058621  0.84877747  0.44240039     0.05250
H2792       H  0.99843954  0.81651389  0.45979310     0.08470
H2793       H  0.00128479  0.84967826  0.47842921     0.08470
H2794       H  0.86135882  0.81116269  0.48066191     0.08460
H2795       H  0.86191980  0.84503940  0.49788814     0.08460
H2796       H  0.87080680  0.81392450  0.51699981     0.05230
C2797       C  0.31341302  0.92914065  0.48792297    -0.20570
C2798       C  0.31224520  0.95851695  0.48496243    -0.07140
C2799       C  0.32479961  0.97037329  0.46082307     0.13730
C2800       C  0.33700739  0.95306145  0.44047593    -0.20630
C2801       C  0.33775127  0.92391540  0.44307243    -0.07150
C2802       C  0.32625319  0.91172748  0.46745844     0.13720
C2803       C  0.32811221  0.88065532  0.47241085    -0.23980
H2804       H  0.30395014  0.91971668  0.50621225     0.15000
H2805       H  0.34541375  0.96245760  0.42164054     0.15030
C2806       C  0.32380467  0.00105649  0.45468752    -0.23920
H2807       H  0.31984603  0.87499655  0.49337382     0.05250
H2808       H  0.35030206  0.87369623  0.47125630     0.08470
H2809       H  0.31568157  0.86914139  0.45658393     0.08470
H2810       H  0.33407701  0.01286779  0.47182476     0.08460
H2811       H  0.30164568  0.00704338  0.45178509     0.08460
H2812       H  0.33490829  0.00650445  0.43500942     0.05230
C2813       C  0.40087790  0.94151002  0.34607499    -0.20570
C2814       C  0.40897275  0.92529435  0.36898463    -0.07140
C2815       C  0.43636118  0.92838599  0.37988229     0.13730
C2816       C  0.45462795  0.94832571  0.36804905    -0.20630
C2817       C  0.44591515  0.96568284  0.34596481    -0.07150
C2818       C  0.41861946  0.96166985  0.33454302     0.13720
C2819       C  0.40757284  0.97826552  0.30998216    -0.23980
H2820       H  0.37985615  0.93918539  0.33785612     0.15000
H2821       H  0.47559250  0.95064972  0.37633711     0.15030
C2822       C  0.44650770  0.91028807  0.40356258    -0.23920
H2823       H  0.38682853  0.97066727  0.30283462     0.05250
H2824       H  0.42208744  0.97641991  0.29194607     0.08470
H2825       H  0.40485020  0.00060488  0.31598933     0.08470
H2826       H  0.44470108  0.88787652  0.39753857     0.08460
H2827       H  0.43391546  0.91428945  0.42270373     0.08460
H2828       H  0.46874873  0.91451921  0.40872542     0.05230
C2829       C  0.30998395  0.81043000  0.35441799    -0.20570
C2830       C  0.29956404  0.81793515  0.32790838    -0.07140
C2831       C  0.30344541  0.84587352  0.31873388     0.13730
C2832       C  0.31898894  0.86465857  0.33537175    -0.20630
C2833       C  0.32978573  0.85682386  0.36157221    -0.07150
C2834       C  0.32490783  0.82938810  0.37129276     0.13720
C2835       C  0.33631494  0.81964625  0.39902164    -0.23980
H2836       H  0.30706119  0.78915792  0.36163617     0.15000
H2837       H  0.32224972  0.88585988  0.32806114     0.15030
C2838       C  0.29086298  0.85707138  0.29219937    -0.23920
H2839       H  0.33166730  0.79721347  0.40279534     0.05250
H2840       H  0.32675996  0.83195563  0.41636171     0.08470
H2841       H  0.35938470  0.82227416  0.39942478     0.08470
H2842       H  0.27771900  0.84146422  0.28133775     0.08460
H2843       H  0.30778574  0.86385882  0.27784893     0.08460
H2844       H  0.27741304  0.87547939  0.29718536     0.05230
C2845       C  0.93838684  0.31484829  0.42739406    -0.20570
C2846       C  0.92203672  0.33757395  0.43619562    -0.07140
C2847       C  0.92422328  0.34731095  0.46413417     0.13730
C2848       C  0.94384454  0.33470776  0.48226148    -0.20630
C2849       C  0.96176337  0.31324207  0.47267713    -0.07150
C2850       C  0.95833576  0.30273010  0.44493830     0.13720
C2851       C  0.97538914  0.27864050  0.43322583    -0.23980
H2852       H  0.93668462  0.30757613  0.40588937     0.15000
H2853       H  0.94578985  0.34221304  0.50363635     0.15030
C2854       C  0.90574313  0.37069186  0.47481556    -0.23920
H2855       H  0.96806704  0.27201387  0.41213850     0.05250
H2856       H  0.97353800  0.26036726  0.44719708     0.08470
H2857       H  0.99764863  0.28474576  0.43102880     0.08470
H2858       H  0.88345006  0.36482842  0.47214580     0.08460
H2859       H  0.90981489  0.39026026  0.46314427     0.08460
H2860       H  0.90945712  0.37500882  0.49739214     0.05230
C2861       C  0.95966454  0.41497577  0.37779169    -0.20570
C2862       C  0.93141926  0.41371297  0.36893229    -0.07140
C2863       C  0.92058424  0.43661049  0.35334438     0.13730
C2864       C  0.93866155  0.45839078  0.34536360    -0.20630
C2865       C  0.96684728  0.45883729  0.35365796    -0.07150
C2866       C  0.97689385  0.43778527  0.37145901     0.13720
C2867       C  0.00550032  0.43982215  0.38439698    -0.23980
H2868       H  0.96857193  0.39797764  0.38985123     0.15000
H2869       H  0.93097153  0.47471764  0.33161397     0.15030
C2870       C  0.89014905  0.43891039  0.34532716    -0.23920
H2871       H  0.01040619  0.42146371  0.39775749     0.05250
H2872       H  0.00656611  0.45900513  0.39760070     0.08470
H2873       H  0.02158874  0.44118592  0.36796905     0.08470
H2874       H  0.87664285  0.43452631  0.36370899     0.08460
H2875       H  0.88528298  0.42440071  0.32786126     0.08460
H2876       H  0.88485773  0.46030640  0.33789190     0.05230
C2877       C  0.86770634  0.31476252  0.33368712    -0.20570
C2878       C  0.85995865  0.33604520  0.35269111    -0.07140
C2879       C  0.83128737  0.34160493  0.35729687     0.13730
C2880       C  0.81107057  0.32590580  0.34291635    -0.20630
C2881       C  0.81858513  0.30473424  0.32376262    -0.07150
C2882       C  0.84733317  0.29894528  0.31922760     0.13720
C2883       C  0.85657066  0.27567661  0.29989643    -0.23980
H2884       H  0.88973576  0.31009345  0.33068188     0.15000
H2885       H  0.78909579  0.32981080  0.34705718     0.15030
C2886       C  0.82200846  0.36401475  0.37767695    -0.23920
H2887       H  0.87973904  0.27415402  0.29861034     0.05250
H2888       H  0.84846618  0.27926554  0.27851208     0.08470
H2889       H  0.84865460  0.25540591  0.30768268     0.08470
H2890       H  0.83058080  0.38454650  0.37116653     0.08460
H2891       H  0.82968480  0.35896230  0.39901502     0.08460
H2892       H  0.79884478  0.36591555  0.37860101     0.05230
C2893       C  0.41700458  0.33214892  0.97943966    -0.20570
C2894       C  0.41955170  0.33358090  0.95026213    -0.07140
C2895       C  0.44540019  0.32670317  0.93754981     0.13730
C2896       C  0.46814252  0.31878748  0.95457788    -0.20630
C2897       C  0.46581880  0.31849470  0.98398491    -0.07150
C2898       C  0.43972059  0.32532594  0.99646757     0.13720
C2899       C  0.43505196  0.32509608  0.02764477    -0.23980
H2900       H  0.39701331  0.33724757  0.98906121     0.15000
H2901       H  0.48789876  0.31295780  0.94492078     0.15030
C2902       C  0.44930336  0.32848129  0.90631199    -0.23920
H2903       H  0.41322876  0.33094364  0.03324346     0.05250
H2904       H  0.44902586  0.34056294  0.03785046     0.08470
H2905       H  0.43894094  0.30382718  0.03600162     0.08470
H2906       H  0.44424678  0.34998839  0.89907776     0.08460
H2907       H  0.43544893  0.31327375  0.89559157     0.08460
H2908       H  0.47119271  0.32355473  0.90006903     0.05230
C2909       C  0.34686407  0.44799945  0.97968311    -0.20570
C2910       C  0.31960262  0.44256897  0.98926400    -0.07140
C2911       C  0.30562857  0.41823893  0.97906117     0.13730
C2912       C  0.31942998  0.40031891  0.96035140    -0.20630
C2913       C  0.34649352  0.40580372  0.95077389    -0.07150
C2914       C  0.36030179  0.43025009  0.96027478     0.13720
C2915       C  0.38878924  0.43875975  0.94986298    -0.23980
H2916       H  0.35763794  0.46663678  0.98681842     0.15000
H2917       H  0.30912231  0.38127086  0.95360407     0.15030
C2918       C  0.27602409  0.41060011  0.98696425    -0.23920
H2919       H  0.38765821  0.46036696  0.94143927     0.05250
H2920       H  0.39671198  0.42510220  0.93273720     0.08470
H2921       H  0.40395762  0.43834637  0.96747788     0.08470
H2922       H  0.26148914  0.42727093  0.97996856     0.08460
H2923       H  0.27435653  0.40746834  0.00991787     0.08460
H2924       H  0.26903947  0.39088650  0.97674808     0.05230
C2925       C  0.31962468  0.30770834  0.89324852    -0.20570
C2926       C  0.33880465  0.32721266  0.88287379    -0.07140
C2927       C  0.33986747  0.33250494  0.85388886     0.13730
C2928       C  0.32217234  0.31762045  0.83578451    -0.20630
C2929       C  0.30303532  0.29794976  0.84603826    -0.07150
C2930       C  0.30154510  0.29314316  0.87521871     0.13720
C2931       C  0.28111291  0.27313923  0.88807268    -0.23980
H2932       H  0.31849886  0.30411278  0.91563635     0.15000
H2933       H  0.32348010  0.32108281  0.81340371     0.15030
C2934       C  0.35977081  0.35376308  0.84212903    -0.23920
H2935       H  0.26734081  0.28463927  0.90300969     0.05250
H2936       H  0.29271239  0.25659384  0.89957619     0.08470
H2937       H  0.26761171  0.26297790  0.87226984     0.08470
H2938       H  0.38161337  0.34780611  0.84747201     0.08460
H2939       H  0.35501212  0.37475171  0.85113883     0.08460
H2940       H  0.35810044  0.35519751  0.81897302     0.05230
C2941       C  0.81310830  0.82019098  0.76787786    -0.20570
C2942       C  0.79779714  0.79683341  0.75868185    -0.07140
C2943       C  0.79804576  0.78975881  0.72984587     0.13730
C2944       C  0.81409078  0.80571967  0.71123645    -0.20630
C2945       C  0.82904186  0.82920513  0.72047126    -0.07150
C2946       C  0.82851215  0.83659344  0.74908672     0.13720
C2947       C  0.84447735  0.86152833  0.75980064    -0.23980
H2948       H  0.81295666  0.82559822  0.78996081     0.15000
H2949       H  0.81427828  0.80030111  0.68913396     0.15030
C2950       C  0.78104899  0.76625372  0.71780267    -0.23920
H2951       H  0.84224049  0.86406834  0.78284010     0.05250
H2952       H  0.83652783  0.88091242  0.74975086     0.08470
H2953       H  0.86706099  0.85889016  0.75487021     0.08470
H2954       H  0.76739643  0.75665283  0.73363326     0.08460
H2955       H  0.79519159  0.74994243  0.70890185     0.08460
H2956       H  0.76728538  0.77443645  0.70094984     0.05230
C2957       C  0.78741884  0.69628772  0.83685044    -0.20570
C2958       C  0.79854809  0.72328882  0.83331639    -0.07140
C2959       C  0.82489077  0.72922615  0.84564080     0.13730
C2960       C  0.83994926  0.70780223  0.85917273    -0.20630
C2961       C  0.82906859  0.68072773  0.86190198    -0.07150
C2962       C  0.80235020  0.67495913  0.85068878     0.13720
C2963       C  0.78984392  0.64611163  0.85245332    -0.23980
H2964       H  0.76694513  0.69160404  0.82865721     0.15000
H2965       H  0.86018035  0.71246812  0.86829845     0.15030
C2966       C  0.83732074  0.75817344  0.84612729    -0.23920
H2967       H  0.76946912  0.64491885  0.84133341     0.05250
H2968       H  0.78607425  0.64042372  0.87461273     0.08470
H2969       H  0.80430556  0.63055977  0.84273505     0.08470
H2970       H  0.82382979  0.77416853  0.83610010     0.08460
H2971       H  0.85791269  0.75782602  0.83533056     0.08460
H2972       H  0.84054979  0.76485913  0.86819791     0.05230
C2973       C  0.73099755  0.80991042  0.85890037    -0.20570
C2974       C  0.72332320  0.79784081  0.83303667    -0.07140
C2975       C  0.69545150  0.80192277  0.82345591     0.13730
C2976       C  0.67670571  0.81832438  0.83945542    -0.20630
C2977       C  0.68455085  0.83025782  0.86517820    -0.07150
C2978       C  0.71197125  0.82576310  0.87512985     0.13720
C2979       C  0.72137486  0.83829336  0.90252573    -0.23980
H2980       H  0.75230328  0.80730160  0.86622997     0.15000
H2981       H  0.65555664  0.82165343  0.83187047     0.15030
C2982       C  0.68429237  0.78920370  0.79687269    -0.23920
H2983       H  0.74364190  0.83323618  0.90700039     0.05250
H2984       H  0.70849301  0.82995420  0.91991526     0.08470
H2985       H  0.71904324  0.86143491  0.90185767     0.08470
H2986       H  0.70008774  0.77649570  0.78558080     0.08460
H2987       H  0.67692048  0.80608551  0.78271800     0.08460
H2988       H  0.66633781  0.77543410  0.80185686     0.05230
C2989       C  0.69741588  0.92382989  0.63803695    -0.20570
C2990       C  0.71046066  0.92108637  0.66432341    -0.07140
C2991       C  0.73457886  0.93688096  0.67040073     0.13730
C2992       C  0.74423387  0.95583242  0.65062012    -0.20630
C2993       C  0.73054196  0.95974852  0.62486979    -0.07150
C2994       C  0.70739952  0.94288049  0.61800451     0.13720
C2995       C  0.69244617  0.94586427  0.59045056    -0.23980
H2996       H  0.67865065  0.91191928  0.63373473     0.15000
H2997       H  0.76262348  0.96810259  0.65558442     0.15030
C2998       C  0.74929677  0.93533965  0.69836093    -0.23920
H2999       H  0.67412847  0.93171765  0.58903427     0.05250
H3000       H  0.70690342  0.94046246  0.57301042     0.08470
H3001       H  0.68487855  0.96774729  0.58796845     0.08470
H3002       H  0.75830802  0.91412546  0.70142463     0.08460
H3003       H  0.73436839  0.94028311  0.71556269     0.08460
H3004       H  0.76683067  0.95045091  0.69982347     0.05230
C3005       C  0.60882995  0.92290196  0.72744005    -0.20570
C3006       C  0.63669577  0.92916153  0.73400630    -0.07140
C3007       C  0.64302125  0.95449881  0.74774905     0.13730
C3008       C  0.62130004  0.97291810  0.75492054    -0.20630
C3009       C  0.59316121  0.96688790  0.74870649    -0.07150
C3010       C  0.58685537  0.94129111  0.73492784     0.13720
C3011       C  0.55717235  0.93260185  0.72905512    -0.23980
H3012       H  0.60431643  0.90356696  0.71637491     0.15000
H3013       H  0.62639667  0.99192046  0.76622542     0.15030
C3014       C  0.67279407  0.96216225  0.75480036    -0.23920
H3015       H  0.55625821  0.91176641  0.71863607     0.05250
H3016       H  0.54699150  0.94803437  0.71499355     0.08470
H3017       H  0.54528583  0.93123398  0.74900624     0.08470
H3018       H  0.68539979  0.96362947  0.73531977     0.08460
H3019       H  0.68208293  0.94593302  0.76859313     0.08460
H3020       H  0.67400584  0.98265411  0.76585951     0.05230
C3021       C  0.72572037  0.86376881  0.77006068    -0.20570
C3022       C  0.71196572  0.85580316  0.74526858    -0.07140
C3023       C  0.71402408  0.82781524  0.73584659     0.13730
C3024       C  0.72955477  0.80846996  0.75145897    -0.20630
C3025       C  0.74293743  0.81609914  0.77651265    -0.07150
C3026       C  0.74155860  0.84433462  0.78560773     0.13720
C3027       C  0.75713447  0.85477146  0.81094874    -0.23980
H3028       H  0.72466179  0.88543553  0.77694066     0.15000
H3029       H  0.73035724  0.78683319  0.74462851     0.15030
C3030       C  0.69904787  0.81800564  0.70983081    -0.23920
H3031       H  0.77163809  0.87169314  0.80462805     0.05250
H3032       H  0.76978996  0.83815180  0.82108439     0.08470
H3033       H  0.74201180  0.86328274  0.82653987     0.08470
H3034       H  0.70733544  0.82888110  0.69113818     0.08460
H3035       H  0.67628959  0.82241739  0.71187333     0.08460
H3036       H  0.70182792  0.79513897  0.70631399     0.05230
C3037       C  0.95489410  0.62947703  0.73494413    -0.20570
C3038       C  0.92554773  0.62931199  0.73646942    -0.07140
C3039       C  0.91189174  0.60465901  0.74513147     0.13730
C3040       C  0.92808726  0.58089070  0.75190310    -0.20630
C3041       C  0.95749836  0.58097065  0.74967522    -0.07150
C3042       C  0.97100438  0.60576274  0.74081288     0.13720
C3043       C  0.00240298  0.60822781  0.73835269    -0.23980
H3044       H  0.96540312  0.64852998  0.72872201     0.15000
H3045       H  0.91773312  0.56215415  0.75922476     0.15030
C3046       C  0.88046521  0.60296079  0.74666019    -0.23920
H3047       H  0.00890623  0.62923954  0.73096974     0.05250
H3048       H  0.01058303  0.59264609  0.72301315     0.08470
H3049       H  0.01215547  0.60505091  0.75913156     0.08470
H3050       H  0.87120163  0.60868384  0.72614002     0.08460
H3051       H  0.87235326  0.61723534  0.76319340     0.08460
H3052       H  0.87343566  0.58149298  0.75194279     0.05230
C3053       C  0.92279314  0.70076224  0.64180869    -0.20570
C3054       C  0.92985935  0.70500432  0.66993621    -0.07140
C3055       C  0.95564295  0.71743488  0.67695440     0.13730
C3056       C  0.97363937  0.72588190  0.65555899    -0.20630
C3057       C  0.96656745  0.72217237  0.62726693    -0.07150
C3058       C  0.94073358  0.70946705  0.62026542     0.13720
C3059       C  0.93141497  0.70596375  0.59033511    -0.23980
H3060       H  0.90323336  0.69051863  0.63676497     0.15000
H3061       H  0.99315098  0.73604755  0.66094885     0.15030
C3062       C  0.96422785  0.72169108  0.70707359    -0.23920
H3063       H  0.91035607  0.69633650  0.58888716     0.05250
H3064       H  0.94635673  0.69208509  0.57900901     0.08470
H3065       H  0.93035172  0.72670671  0.57997674     0.08470
H3066       H  0.96556535  0.70119515  0.71785709     0.08460
H3067       H  0.94859161  0.73518399  0.71794875     0.08460
H3068       H  0.98498430  0.73191858  0.70878483     0.05230
C3069       C  0.83327624  0.70076892  0.74897005    -0.20570
C3070       C  0.86013237  0.71226494  0.74806572    -0.07140
C3071       C  0.86516653  0.73819188  0.76154204     0.13730
C3072       C  0.84310881  0.75188848  0.77568971    -0.20630
C3073       C  0.81615150  0.74032764  0.77671909    -0.07150
C3074       C  0.81116382  0.71446778  0.76286295     0.13720
C3075       C  0.78258726  0.70121188  0.76195919    -0.23980
H3076       H  0.82954735  0.68099143  0.73837581     0.15000
H3077       H  0.84689530  0.77176640  0.78600799     0.15030
C3078       C  0.89384885  0.75111988  0.76163435    -0.23920
H3079       H  0.78238548  0.68215692  0.74850867     0.05250
H3080       H  0.76670800  0.71587055  0.75369791     0.08470
H3081       H  0.77611457  0.69478543  0.78302867     0.08470
H3082       H  0.90026805  0.75643169  0.73998904     0.08460
H3083       H  0.90922427  0.73619739  0.77071429     0.08460
H3084       H  0.89431791  0.77071789  0.77427475     0.05230
C3085       C  0.61113800  0.70206639  0.95663669    -0.20570
C3086       C  0.63905754  0.70491336  0.96489203    -0.07140
C3087       C  0.64545988  0.71544169  0.99178677     0.13730
C3088       C  0.62366702  0.72347614  0.00971637    -0.20630
C3089       C  0.59558819  0.72121849  0.00146266    -0.07150
C3090       C  0.58920210  0.71036052  0.97451187     0.13720
C3091       C  0.55955552  0.70844551  0.96398307    -0.23980
H3092       H  0.60656279  0.69332622  0.93614940     0.15000
H3093       H  0.62858621  0.73219821  0.03014330     0.15030
C3094       C  0.67533175  0.71819014  0.00157761    -0.23920
H3095       H  0.55864939  0.70012960  0.94222342     0.05250
H3096       H  0.54963136  0.72953947  0.96405218     0.08470
H3097       H  0.54743147  0.69411303  0.97753042     0.08470
H3098       H  0.68692900  0.73229931  0.98732370     0.08460
H3099       H  0.68568781  0.69732565  0.00166840     0.08460
H3100       H  0.67656387  0.72701302  0.02312236     0.05230
C3101       C  0.70281973  0.62755239  0.98512477    -0.20570
C3102       C  0.70625820  0.62938300  0.95605085    -0.07140
C3103       C  0.71805167  0.60641013  0.94126845     0.13730
C3104       C  0.72622674  0.58240281  0.95629272    -0.20630
C3105       C  0.72229828  0.58062224  0.98547426    -0.07150
C3106       C  0.70984507  0.60351941  0.99987057     0.13720
C3107       C  0.70488907  0.60387469  0.03100164    -0.23980
H3108       H  0.69445926  0.64538800  0.99661294     0.15000
H3109       H  0.73602478  0.56502924  0.94524274     0.15030
C3110       C  0.72151477  0.60660654  0.90989222    -0.23920
H3111       H  0.69449460  0.62350762  0.03819686     0.05250
H3112       H  0.72527946  0.60246149  0.04194693     0.08470
H3113       H  0.69101057  0.58633067  0.03701714     0.08470
H3114       H  0.73772107  0.62185475  0.90367862     0.08460
H3115       H  0.70130380  0.61197758  0.89975036     0.08460
H3116       H  0.72836908  0.58581050  0.90180352     0.05230
C3117       C  0.70859354  0.71007717  0.86845785    -0.20570
C3118       C  0.71705104  0.71461533  0.89609855    -0.07140
C3119       C  0.73914444  0.73317620  0.90199050     0.13730
C3120       C  0.75218248  0.74719745  0.87975301    -0.20630
C3121       C  0.74325223  0.74305734  0.85203089    -0.07150
C3122       C  0.72148749  0.72394770  0.84629066     0.13720
C3123       C  0.71222366  0.71746188  0.81681044    -0.23980
H3124       H  0.69182675  0.69543759  0.86424880     0.15000
H3125       H  0.76941706  0.76127468  0.88390196     0.15030
C3126       C  0.74888438  0.73798758  0.93157977    -0.23920
H3127       H  0.69621377  0.70070097  0.81622250     0.05250
H3128       H  0.73018595  0.71053482  0.80376085     0.08470
H3129       H  0.70285967  0.73626900  0.80742543     0.08470
H3130       H  0.75626213  0.71790616  0.94068341     0.08460
H3131       H  0.73131975  0.74638200  0.94442594     0.08460
H3132       H  0.76637292  0.75319186  0.93250140     0.05230
loop_ 
_geom_bond_atom_site_label_1 
_geom_bond_atom_site_label_2 
_geom_bond_distance 
_geom_bond_site_symmetry_2 
_ccdc_geom_bond_type 
C1            C2   1.403       .  A
C1            C6   1.404       .  A
C1         C3118   1.468       .  S
C2            C3   1.398       .  A
C2            H7   1.084       .  S
C3            C4   1.390       .  A
C3         C3086   1.468       .  S
C4            C5   1.402       .  A
C4            H8   1.085       .  S
C5            C6   1.404       .  A
C5         C3102   1.483       .  S
C6            H9   1.081       .  S
C10          C11   1.412       .  A
C10          C15   1.406       .  A
C10        C3070   1.483       .  S
C11          C12   1.409       .  A
C11          H16   1.081       .  S
C12          C13   1.398       .  A
C12        C3038   1.487       .  S
C13          C14   1.389       .  A
C13          H17   1.085       .  S
C14          C15   1.400       .  A
C14        C3054   1.468       .  S
C15          H18   1.083       .  S
C19          C20   1.404       .  A
C19          C24   1.409       .  A
C19        C3022   1.483       .  S
C20          C21   1.401       .  A
C20          H25   1.084       .  S
C21          C22   1.395       .  A
C21        C2990   1.474       .  S
C22          C23   1.395       .  A
C22          H26   1.085       .  S
C23          C24   1.407       .  A
C23        C3006   1.473       .  S
C24          H27   1.084       .  S
C28          C29   1.423       .  A
C28          C33   1.421       .  A
C28        C2974   1.510       .  S
C29          C30   1.420       .  A
C29        C3121   1.482       .  S
C30          C31   1.420       .  A
C30        C2958   1.510       .  S
C31          C32   1.421       .  A
C31        C3073   1.497       .  S
C32          C33   1.420       .  A
C32        C2942   1.496       .  S
C33        C3025   1.496       .  S
C34          C35   1.405       .  A
C34          C39   1.394       .  A
C34        C2913   1.482       .  S
C35          C36   1.402       .  A
C35          H40   1.084       .  S
C36          C37   1.407       .  A
C36        C2926   1.478       .  S
C37          C38   1.406       .  A
C37          H41   1.083       .  S
C38          C39   1.400       .  A
C38        C2894   1.481       .  S
C39          H42   1.084       .  S
C43          C44   1.418       .  A
C43          C48   1.407       .  A
C43        C2862   1.507       .  S
C44          C45   1.412       .  A
C44          H49   1.078       .  S
C45          C46   1.402       .  A
C45        C2878   1.489       .  S
C46          C47   1.402       .  A
C46          H50   1.084       .  S
C47          C48   1.397       .  A
C47        C2846   1.479       .  S
C48          H51   1.083       .  S
C52          C53   1.409       .  A
C52          C57   1.400       .  A
C52        C2814   1.491       .  S
C53          C54   1.409       .  A
C53          H58   1.084       .  S
C54          C55   1.410       .  A
C54        C2833   1.494       .  S
C55          C56   1.409       .  A
C55          H59   1.082       .  S
C56          C57   1.407       .  A
C56        C2801   1.495       .  S
C57          H60   1.084       .  S
C61          C62   1.407       .  A
C61          C66   1.408       .  A
C61        C2750   1.487       .  S
C62          C63   1.405       .  A
C62          H67   1.084       .  S
C63          C64   1.393       .  A
C63        C2782   1.478       .  S
C64          C65   1.405       .  A
C64          H68   1.084       .  S
C65          C66   1.411       .  A
C65        C2766   1.500       .  S
C66          H69   1.078       .  S
C70          C71   1.406       .  A
C70          C75   1.395       .  A
C70        C2734   1.481       .  S
C71          C72   1.405       .  A
C71          H76   1.082       .  S
C72          C73   1.406       .  A
C72        C2945   1.480       .  S
C73          C74   1.404       .  A
C73          H77   1.083       .  S
C74          C75   1.396       .  A
C74        C2718   1.477       .  S
C75          H78   1.085       .  S
C79          C80   1.403       .  A
C79          C84   1.396       .  A
C79        C2670   1.470       .  S
C80          C81   1.404       .  A
C80          H85   1.083       .  S
C81          C82   1.398       .  A
C81        C2702   1.474       .  S
C82          C83   1.396       .  A
C82          H86   1.085       .  S
C83          C84   1.396       .  A
C83        C2686   1.467       .  S
C84          H87   1.084       .  S
C88          C89   1.405       .  A
C88          C93   1.400       .  A
C88        C2638   1.487       .  S
C89          C90   1.407       .  A
C89          H94   1.084       .  S
C90          C91   1.409       .  A
C90        C2961   1.491       .  S
C91          C92   1.412       .  A
C91          H95   1.078       .  S
C92          C93   1.411       .  A
C92        C2654   1.506       .  S
C93          H96   1.083       .  S
C97          C98   1.394       .  A
C97         C102   1.400       .  A
C97        C2606   1.473       .  S
C98          C99   1.400       .  A
C98         H103   1.085       .  S
C99         C100   1.405       .  A
C99        C2622   1.482       .  S
C100        C101   1.407       .  A
C100        H104   1.083       .  S
C101        C102   1.405       .  A
C101       C2590   1.477       .  S
C102        H105   1.084       .  S
C106        C107   1.399       .  A
C106        C111   1.407       .  A
C106       C2574   1.483       .  S
C107        C108   1.394       .  A
C107        H112   1.084       .  S
C108        C109   1.410       .  A
C108       C2558   1.487       .  S
C109        C110   1.410       .  A
C109        H113   1.084       .  S
C110        C111   1.409       .  A
C110       C2542   1.490       .  S
C111        H114   1.084       .  S
O115        C123   1.273       .  A
O115       Co135   1.996       .  S
O116        C124   1.298       .  A
O116       Co136   2.122       .  S
O117        C125   1.271       .  A
O117       Co137   1.992       .  S
O118        C126   1.275       .  A
O118       Co138   1.988   1_655  S
O119        C125   1.260       .  A
O119       Co136   1.979       .  S
O120        C126   1.273       .  A
O120       Co135   2.001       .  S
O121        C124   1.268       .  A
O121       Co138   1.881       .  S
O122        C123   1.269       .  A
O122       Co137   1.974   1_655  S
C123       C2737   1.491       .  S
C124       C2609   1.491       .  S
C125       C2561   1.498       .  S
C126       C2785   1.486       .  S
O127        C140   1.264       .  A
O127       Co135   1.976       .  S
O128        C141   1.277       .  A
O128       Co136   1.995       .  S
O129        C142   1.271       .  A
O129       Co137   2.001   1_655  S
O130        C143   1.296       .  A
O130       Co138   2.114       .  S
O131        C143   1.265       .  A
O131       Co136   1.893       .  S
O132        C142   1.266       .  A
O132       Co135   1.970       .  S
O133        C140   1.264       .  A
O133       Co138   1.992   1_655  S
O134        C141   1.273       .  A
O134       Co137   1.990       .  S
Co135       O139   2.027   1_655  S
Co136       O139   1.991       .  S
Co137       O139   2.040       .  S
Co138       O139   2.004       .  S
C140       C2529   1.478       .  S
C141       C2494   1.487       .  S
C142       C3057   1.474       .  S
C143       C2510   1.471       .  S
C144        C145   1.405       .  A
C144        C149   1.390       .  A
C144       C2462   1.469       .  S
C145        C146   1.408       .  A
C145        H150   1.084       .  S
C146        C147   1.407       .  A
C146       C2478   1.482       .  S
C147        C148   1.405       .  A
C147        H151   1.084       .  S
C148        C149   1.393       .  A
C148       C2446   1.473       .  S
C149        H152   1.086       .  S
C153        C154   1.394       .  A
C153        C158   1.396       .  A
C153       C2414   1.477       .  S
C154        C155   1.407       .  A
C154        H159   1.077       .  S
C155        C156   1.426       .  A
C155       C2398   1.522       .  S
C156        C157   1.409       .  A
C156        H160   1.073       .  S
C157        C158   1.408       .  A
C157       C2430   1.507       .  S
C158        H161   1.083       .  S
C162        C163   1.434       .  A
C162        C167   1.423       .  A
C162       C2545   1.509       .  S
C163        C164   1.439       .  A
C163       C2433   1.537       .  S
C164        C165   1.428       .  A
C164       C2382   1.491       .  S
C165        C166   1.412       .  A
C165       C2481   1.498       .  S
C166        C167   1.415       .  A
C166       C2350   1.507       .  S
C167       C2366   1.490       .  S
C168        C169   1.409       .  A
C168        C173   1.402       .  A
C168       C2369   1.477       .  S
C169        C170   1.408       .  A
C169        H174   1.083       .  S
C170        C171   1.393       .  A
C170       C2497   1.474       .  S
C171        C172   1.395       .  A
C171        H175   1.085       .  S
C172        C173   1.397       .  A
C172       C2337   1.464       .  S
C173        H176   1.084       .  S
O177        C185   1.277       .  A
O177       Co197   2.036   1_655  S
O178        C186   1.253       .  A
O178       Co198   1.991       .  S
O179        C187   1.261       .  A
O179       Co199   1.861       .  S
O180        C188   1.262       .  A
O180       Co200   1.967       .  S
O181        C187   1.295       .  A
O181       Co198   2.101   1_655  S
O182        C188   1.269       .  A
O182       Co197   2.029       .  S
O183        C186   1.255       .  A
O183       Co200   1.969       .  S
O184        C185   1.268       .  A
O184       Co199   1.976       .  S
C185       C2641   1.484       .  S
C186       C2318   1.480       .  S
C187       C2689   1.466       .  S
C188       C2305   1.487       .  S
O189        C202   1.259       .  A
O189       Co197   1.962       .  S
O190        C203   1.259   1_455  A
O190       Co198   1.864       .  S
O191        C204   1.255       .  A
O191       Co199   1.997       .  S
O192        C205   1.276       .  A
O192       Co200   2.034       .  S
O193        C205   1.270       .  A
O193       Co198   1.976       .  S
O194        C204   1.253       .  A
O194       Co197   1.966   1_655  S
O195        C202   1.269       .  A
O195       Co200   2.024       .  S
O196        C203   1.300       .  A
O196       Co199   2.120       .  S
Co197       O201   2.044       .  S
Co198       O201   2.021       .  S
Co199       O201   2.026   1_655  S
Co200       O201   2.046       .  S
C202       C2334   1.471       .  S
C203       C2270   1.488       .  S
C204       C3041   1.483       .  S
C205       C2286   1.492       .  S
C206        C207   1.397       .  A
C206        C211   1.409       .  A
C206       C2321   1.480       .  S
C207        C208   1.385       .  A
C207        H212   1.086       .  S
C208        C209   1.396       .  A
C208       C2257   1.462       .  S
C209        C210   1.402       .  A
C209        H213   1.084       .  S
C210        C211   1.411       .  A
C210       C2238   1.476       .  S
C211        H214   1.082       .  S
C215        C216   1.415       .  A
C215        C220   1.396       .  A
C215       C2222   1.489       .  S
C216        C217   1.414       .  A
C216        H221   1.083       .  S
C217        C218   1.404       .  A
C217       C2353   1.491       .  S
C218        C219   1.403       .  A
C218        H222   1.084       .  S
C219        C220   1.399       .  A
C219       C2302   1.480       .  S
C220        H223   1.084       .  S
C224        C225   1.410       .  A
C224        C229   1.404       .  A
C224       C2385   1.482       .  S
C225        C226   1.406       .  A
C225        H230   1.083       .  S
C226        C227   1.391       .  A
C226       C2206   1.477       .  S
C227        C228   1.394       .  A
C227        H231   1.085       .  S
C228        C229   1.404       .  A
C228       C2190   1.476       .  S
C229        H232   1.083       .  S
C233        C234   1.408       .  A
C233        C238   1.398       .  A
C233       C2158   1.485       .  S
C234        C235   1.409       .  A
C234        H239   1.083       .  S
C235        C236   1.408       .  A
C235       C2977   1.490       .  S
C236        C237   1.409       .  A
C236        H240   1.080       .  S
C237        C238   1.399       .  A
C237       C2174   1.495       .  S
C238        H241   1.084       .  S
C242        C243   1.395       .  A
C242        C247   1.408       .  A
C242       C2145   1.476       .  S
C243        C244   1.393       .  A
C243        H248   1.085       .  S
C244        C245   1.399       .  A
C244       C2513   1.471       .  S
C245        C246   1.404       .  A
C245        H249   1.084       .  S
C246        C247   1.410       .  A
C246       C2126   1.481       .  S
C247        H250   1.083       .  S
C251        C252   1.420       .  A
C251        C256   1.419       .  A
C251       C2593   1.491       .  S
C252        C253   1.423       .  A
C252       C2830   1.508       .  S
C253        C254   1.423       .  A
C253       C2113   1.496       .  S
C254        C255   1.420       .  A
C254       C2094   1.494       .  S
C255        C256   1.419       .  A
C255       C2078   1.504       .  S
C256       C2129   1.495       .  S
C257        C258   1.398       .  A
C257        C262   1.394       .  A
C257       C2062   1.465       .  S
C258        C259   1.402       .  A
C258        H263   1.084       .  S
C259        C260   1.408       .  A
C259       C2097   1.478       .  S
C260        C261   1.408       .  A
C260        H264   1.084       .  S
C261        C262   1.394       .  A
C261       C2046   1.474       .  S
C262        H265   1.085       .  S
O266        C274   1.275       .  A
O266       Co286   2.009   1_556  S
O267        C275   1.296       .  A
O267       Co287   2.115       .  S
O268        C276   1.262       .  A
O268       Co288   1.981       .  S
O269        C277   1.281   1_554  A
O269       Co289   2.011       .  S
O270        C276   1.256       .  A
O270       Co287   1.957       .  S
O271        C277   1.265       .  A
O271       Co286   1.983   1_556  S
O272        C275   1.270       .  A
O272       Co289   1.890       .  S
O273        C274   1.264   1_554  A
O273       Co288   1.960       .  S
C274       C2254   1.473       .  S
C275       C1998   1.485       .  S
C276       C2014   1.482       .  S
C277       C2225   1.506       .  S
O278        C291   1.273       .  A
O278       Co286   1.996       .  S
O279        C292   1.277       .  A
O279       Co287   1.988       .  S
O280        C293   1.267       .  A
O280       Co288   1.993       .  S
O281        C294   1.297       .  A
O281       Co289   2.120       .  S
O282        C294   1.263       .  A
O282       Co287   1.883       .  S
O283        C293   1.269       .  A
O283       Co286   1.975       .  S
O284        C291   1.258       .  A
O284       Co289   1.957       .  S
O285        C292   1.276       .  A
O285       Co288   2.014       .  S
Co286       O290   2.036       .  S
Co287       O290   1.988       .  S
Co288       O290   2.028       .  S
Co289       O290   1.994       .  S
C291       C2465   1.487   1_554  S
C292       C2033   1.483       .  S
C293       C2910   1.489   1_554  S
C294       C2065   1.474       .  S
O295        C303   1.274       .  A
O295       Co315   1.981       .  S
O296        C304   1.270       .  A
O296       Co316   1.980       .  S
O297        C305   1.265       .  A
O297       Co317   1.988       .  S
O298        C306   1.297       .  A
O298       Co318   2.131   1_655  S
O299        C305   1.271       .  A
O299       Co316   1.981       .  S
O300        C306   1.266       .  A
O300       Co315   1.884       .  S
O301        C304   1.268       .  A
O301       Co318   1.997       .  S
O302        C303   1.277       .  A
O302       Co317   2.019   1_655  S
C303       C2865   1.476       .  S
C304       C2142   1.478       .  S
C305       C1934   1.483       .  S
C306       C1985   1.483       .  S
O307        C320   1.294       .  A
O307       Co315   2.113       .  S
O308        C321   1.272       .  A
O308       Co316   1.996       .  S
O309        C322   1.262       .  A
O309       Co317   1.977   1_655  S
O310        C323   1.275       .  A
O310       Co318   1.991       .  S
O311        C323   1.270       .  A
O311       Co316   2.001       .  S
O312        C322   1.259       .  A
O312       Co315   1.983       .  S
O313        C320   1.269   1_455  A
O313       Co318   1.891       .  S
O314        C321   1.266       .  A
O314       Co317   1.965       .  S
Co315       O319   1.996   1_655  S
Co316       O319   2.042       .  S
Co317       O319   2.028       .  S
Co318       O319   1.995       .  S
C320       C1902   1.477       .  S
C321       C1950   1.467       .  S
C322       C1918   1.470       .  S
C323       C1966   1.483       .  S
C324        C325   1.391       .  A
C324        C329   1.404       .  A
C324       C2017   1.467       .  S
C325        C326   1.388       .  A
C325        H330   1.086       .  S
C326        C327   1.398       .  A
C326       C1953   1.459       .  S
C327        C328   1.403       .  A
C327        H331   1.084       .  S
C328        C329   1.406       .  A
C328       C1886   1.473       .  S
C329        H332   1.084       .  S
C333        C334   1.395       .  A
C333        C338   1.403       .  A
C333       C1870   1.477       .  S
C334        C335   1.393       .  A
C334        H339   1.085       .  S
C335        C336   1.404       .  A
C335       C1921   1.470       .  S
C336        C337   1.406       .  A
C336        H340   1.084       .  S
C337        C338   1.404       .  A
C337       C1857   1.480       .  S
C338        H341   1.082       .  S
C342        C343   1.399       .  A
C342        C347   1.400       .  A
C342       C1905   1.478       .  S
C343        C344   1.407       .  A
C343        H348   1.081       .  S
C344        C345   1.419       .  A
C344       C1838   1.509       .  S
C345        C346   1.407       .  A
C345        H349   1.081       .  S
C346        C347   1.401       .  A
C346       C1822   1.486       .  S
C347        H350   1.083       .  S
O351        C359   1.268       .  A
O351       Co371   1.968       .  S
O352        C360   1.258       .  A
O352       Co372   1.982       .  S
O353        C361   1.273       .  A
O353       Co373   2.024       .  S
O354        C362   1.297   1_554  A
O354       Co374   2.107       .  S
O355        C361   1.268       .  A
O355       Co372   1.982       .  S
O356        C362   1.259       .  A
O356       Co371   1.866   1_556  S
O357        C360   1.259       .  A
O357       Co374   1.992       .  S
O358        C359   1.285       .  A
O358       Co373   2.050       .  S
C359       C2657   1.503   1_554  S
C360       C1873   1.474       .  S
C361       C1841   1.499       .  S
C362       C2705   1.476       .  S
O363        C376   1.299       .  A
O363       Co371   2.117       .  S
O364        C377   1.269       .  A
O364       Co372   2.024       .  S
O365        C378   1.250       .  A
O365       Co373   1.965       .  S
O366        C379   1.263       .  A
O366       Co374   1.973       .  S
O367        C379   1.277       .  A
O367       Co372   2.030       .  S
O368        C378   1.252   1_556  A
O368       Co371   1.997   1_556  S
O369        C376   1.258       .  A
O369       Co374   1.872       .  S
O370        C377   1.261       .  A
O370       Co373   1.974       .  S
Co371       O375   2.031       .  S
Co372       O375   2.058       .  S
Co373       O375   2.016       .  S
Co374       O375   2.014       .  S
C376       C1809   1.481   1_554  S
C377       C1774   1.492       .  S
C378       C3105   1.480   1_554  S
C379       C1790   1.480       .  S
C380        C381   1.398       .  A
C380        C385   1.403       .  A
C380       C1726   1.483       .  S
C381        C382   1.401       .  A
C381        H386   1.085       .  S
C382        C383   1.406       .  A
C382       C1742   1.486       .  S
C383        C384   1.407       .  A
C383        H387   1.082       .  S
C384        C385   1.405       .  A
C384       C1758   1.477       .  S
C385        H388   1.084       .  S
C389        C390   1.394       .  A
C389        C394   1.406       .  A
C389       C2526   1.471       .  S
C390        C391   1.393       .  A
C390        H395   1.085       .  S
C391        C392   1.399       .  A
C391       C1982   1.463       .  S
C392        C393   1.402       .  A
C392        H396   1.084       .  S
C393        C394   1.408       .  A
C393       C1710   1.480       .  S
C394        H397   1.083       .  S
C398        C399   1.420       .  A
C398        C403   1.415       .  A
C398       C1713   1.487       .  S
C399        C400   1.420       .  A
C399       C2753   1.501       .  S
C400        C401   1.418       .  A
C400       C1761   1.489       .  S
C401        C402   1.414       .  A
C401       C1681   1.492       .  S
C402        C403   1.411       .  A
C402       C1694   1.491       .  S
C403       C1825   1.494       .  S
C404        C405   1.411       .  A
C404        C409   1.405       .  A
C404       C1697   1.483       .  S
C405        C406   1.410       .  A
C405        H410   1.083       .  S
C406        C407   1.398       .  A
C406       C1777   1.487       .  S
C407        C408   1.395       .  A
C407        H411   1.084       .  S
C408        C409   1.401       .  A
C408       C1662   1.477       .  S
C409        H412   1.084       .  S
O413        C421   1.275       .  A
O413       Co433   1.990       .  S
O414        C422   1.269       .  A
O414       Co434   1.986       .  S
O415        C423   1.272       .  A
O415       Co435   1.991   1_556  S
O416        C424   1.298       .  A
O416       Co436   2.125       .  S
O417        C423   1.267   1_554  A
O417       Co434   1.965       .  S
O418        C424   1.270       .  A
O418       Co433   1.890       .  S
O419        C422   1.258       .  A
O419       Co436   1.973       .  S
O420        C421   1.272   1_556  A
O420       Co435   2.001   1_556  S
C421       C2161   1.477   1_554  S
C422       C1646   1.491       .  S
C423       C2193   1.486       .  S
C424       C1633   1.494       .  S
O425        C438   1.298       .  A
O425       Co433   2.123       .  S
O426        C439   1.271       .  A
O426       Co434   1.998       .  S
O427        C440   1.265       .  A
O427       Co435   1.977       .  S
O428        C441   1.278       .  A
O428       Co436   1.998       .  S
O429        C441   1.271       .  A
O429       Co434   1.984       .  S
O430        C440   1.264       .  A
O430       Co433   1.983       .  S
O431        C438   1.265       .  A
O431       Co436   1.888       .  S
O432        C439   1.268       .  A
O432       Co435   1.974       .  S
Co433       O437   1.999       .  S
Co434       O437   2.036       .  S
Co435       O437   2.028       .  S
Co436       O437   1.985       .  S
C438       C1665   1.477       .  S
C439       C2449   1.488   1_554  S
C440       C3089   1.475       .  S
C441       C2049   1.488       .  S
C442        C443   1.408       .  A
C442        C447   1.396       .  A
C442       C1649   1.478       .  S
C443        C444   1.405       .  A
C443        H448   1.084       .  S
C444        C445   1.403       .  A
C444       C2110   1.481       .  S
C445        C446   1.404       .  A
C445        H449   1.084       .  S
C446        C447   1.397       .  A
C446       C1614   1.474       .  S
C447        H450   1.084       .  S
C451        C452   1.403       .  A
C451        C456   1.409       .  A
C451       C1678   1.482       .  S
C452        C453   1.400       .  A
C452        H457   1.084       .  S
C453        C454   1.399       .  A
C453       C1630   1.479       .  S
C454        C455   1.406       .  A
C454        H458   1.084       .  S
C455        C456   1.413       .  A
C455       C1598   1.502       .  S
C456        H459   1.079       .  S
C460        C461   1.403       .  A
C460        C465   1.410       .  A
C460       C1585   1.489       .  S
C461        C462   1.398       .  A
C461        H466   1.084       .  S
C462        C463   1.407       .  A
C462       C1793   1.482       .  S
C463        C464   1.406       .  A
C463        H467   1.084       .  S
C464        C465   1.408       .  A
C464       C1566   1.487       .  S
C465        H468   1.084       .  S
C469        C470   1.418       .  A
C469        C474   1.414       .  A
C469       C1854   1.491       .  S
C470        C471   1.424       .  A
C470       C2881   1.503       .  S
C471        C472   1.438       .  A
C471       C1550   1.510       .  S
C472        C473   1.439       .  A
C472       C1534   1.533       .  S
C473        C474   1.417       .  A
C473       C1518   1.503       .  S
C474       C1569   1.499       .  S
C475        C476   1.400       .  A
C475        C480   1.406       .  A
C475       C1505   1.491       .  S
C476        C477   1.400       .  A
C476        H481   1.084       .  S
C477        C478   1.401       .  A
C477       C1486   1.472       .  S
C478        C479   1.405       .  A
C478        H482   1.080       .  S
C479        C480   1.414       .  A
C479       C1537   1.500       .  S
C480        H483   1.082       .  S
O484        C492   1.258       .  A
O484       Co504   1.859       .  S
O485        C493   1.256       .  A
O485       Co505   1.960       .  S
O486        C494   1.258       .  A
O486       Co506   2.007       .  S
O487        C495   1.278       .  A
O487       Co507   2.027   1_565  S
O488        C494   1.259       .  A
O488       Co505   1.971       .  S
O489        C495   1.269       .  A
O489       Co504   1.978       .  S
O490        C493   1.276       .  A
O490       Co507   2.049       .  S
O491        C492   1.302       .  A
O491       Co506   2.128   1_565  S
C492       C1617   1.478       .  S
C493       C1438   1.491       .  S
C494       C1457   1.487       .  S
C495       C1601   1.500       .  S
O496        C509   1.257       .  A
O496       Co504   2.004       .  S
O497        C510   1.270       .  A
O497       Co505   2.004       .  S
O498        C511   1.256   1_545  A
O498       Co506   1.868       .  S
O499        C512   1.258       .  A
O499       Co507   1.971       .  S
O500        C512   1.271       .  A
O500       Co505   2.038       .  S
O501        C511   1.306       .  A
O501       Co504   2.141       .  S
O502        C509   1.252   1_545  A
O502       Co507   1.966       .  S
O503        C510   1.269       .  A
O503       Co506   1.971       .  S
Co504       O508   2.028   1_565  S
Co505       O508   2.042       .  S
Co506       O508   2.015       .  S
Co507       O508   2.047       .  S
C509       C1745   1.485       .  S
C510       C1473   1.475       .  S
C511       C2817   1.496       .  S
C512       C1502   1.481       .  S
O513        C521   1.254   1_556  A
O513       Co533   1.994   1_556  S
O514        C522   1.276       .  A
O514       Co534   2.028       .  S
O515        C523   1.260       .  A
O515       Co535   1.962       .  S
O516        C524   1.260       .  A
O516       Co536   1.877       .  S
O517        C523   1.270       .  A
O517       Co534   2.038       .  S
O518        C524   1.294       .  A
O518       Co533   2.104       .  S
O519        C522   1.269       .  A
O519       Co536   1.972       .  S
O520        C521   1.255       .  A
O520       Co535   1.970       .  S
C521       C2897   1.481   1_554  S
C522       C1582   1.492       .  S
C523       C1377   1.491       .  S
C524       C1425   1.490   1_554  S
O525        C538   1.259       .  A
O525       Co533   1.871   1_556  S
O526        C539   1.260       .  A
O526       Co534   1.961       .  S
O527        C540   1.278       .  A
O527       Co535   2.028       .  S
O528        C541   1.258       .  A
O528       Co536   1.979       .  S
O529        C541   1.259       .  A
O529       Co534   1.989       .  S
O530        C540   1.274       .  A
O530       Co533   1.982       .  S
O531        C538   1.293   1_554  A
O531       Co536   2.103       .  S
O532        C539   1.271       .  A
O532       Co535   2.025       .  S
Co533       O537   2.032       .  S
Co534       O537   2.061       .  S
Co535       O537   2.032       .  S
Co536       O537   2.001       .  S
C538       C1342   1.467       .  S
C539       C1393   1.470       .  S
C540       C1361   1.490   1_554  S
C541       C1406   1.481       .  S
C542        C543   1.399       .  A
C542        C547   1.397       .  A
C542       C1390   1.473       .  S
C543        C544   1.403       .  A
C543        H548   1.083       .  S
C544        C545   1.411       .  A
C544       C1454   1.492       .  S
C545        C546   1.412       .  A
C545        H549   1.083       .  S
C546        C547   1.402       .  A
C546       C1326   1.481       .  S
C547        H550   1.084       .  S
C551        C552   1.392       .  A
C551        C556   1.403       .  A
C551       C1310   1.474       .  S
C552        C553   1.398       .  A
C552        H557   1.085       .  S
C553        C554   1.409       .  A
C553       C1358   1.480       .  S
C554        C555   1.411       .  A
C554        H558   1.083       .  S
C555        C556   1.406       .  A
C555       C1294   1.483       .  S
C556        H559   1.084       .  S
C560        C561   1.412       .  A
C560        C565   1.401       .  A
C560       C1262   1.490       .  S
C561        C562   1.400       .  A
C561        H566   1.082       .  S
C562        C563   1.395       .  A
C562       C1345   1.479       .  S
C563        C564   1.394       .  A
C563        H567   1.084       .  S
C564        C565   1.397       .  A
C564       C1278   1.461       .  S
C565        H568   1.083       .  S
O569        C577   1.263       .  A
O569       Co589   1.978   1_565  S
O570        C578   1.276       .  A
O570       Co590   2.014       .  S
O571        C579   1.272       .  A
O571       Co591   1.976       .  S
O572        C580   1.267       .  A
O572       Co592   1.899       .  S
O573        C579   1.266       .  A
O573       Co590   1.993   1_565  S
O574        C580   1.297       .  A
O574       Co589   2.125       .  S
O575        C578   1.274       .  A
O575       Co592   1.977       .  S
O576        C577   1.270       .  A
O576       Co591   1.989       .  S
C577       C3009   1.486       .  S
C578       C1249   1.475       .  S
C579       C2417   1.490       .  S
C580       C1230   1.503       .  S
O581        C594   1.268       .  A
O581       Co589   1.887       .  S
O582        C595   1.268       .  A
O582       Co590   1.976   1_565  S
O583        C596   1.272       .  A
O583       Co591   1.991       .  S
O584        C597   1.263       .  A
O584       Co592   1.987       .  S
O585        C597   1.264       .  A
O585       Co590   1.981       .  S
O586        C596   1.274       .  A
O586       Co589   1.991   1_565  S
O587        C594   1.294       .  A
O587       Co592   2.101       .  S
O588        C595   1.271       .  A
O588       Co591   1.996       .  S
Co589       O593   2.003       .  S
Co590       O593   2.033       .  S
Co591       O593   2.038   1_565  S
Co592       O593   2.001       .  S
C594       C1281   1.462       .  S
C595       C2209   1.492       .  S
C596       C2177   1.494       .  S
C597       C1313   1.487       .  S
C598        C599   1.397       .  A
C598        C603   1.411       .  A
C598       C1806   1.486       .  S
C599        C600   1.392       .  A
C599        H604   1.086       .  S
C600        C601   1.403       .  A
C600       C1422   1.474       .  S
C601        C602   1.411       .  A
C601        H605   1.084       .  S
C602        C603   1.415       .  A
C602       C1214   1.494       .  S
C603        H606   1.083       .  S
C607        C608   1.401       .  A
C607        C612   1.396       .  A
C607       C2273   1.473       .  S
C608        C609   1.404       .  A
C608        H613   1.084       .  S
C609        C610   1.406       .  A
C609       C1198   1.482       .  S
C610        C611   1.411       .  A
C610        H614   1.079       .  S
C611        C612   1.403       .  A
C611       C1185   1.498       .  S
C612        H615   1.084       .  S
C616        C617   1.410       .  A
C616        C621   1.408       .  A
C616       C1201   1.501       .  S
C617        C618   1.424       .  A
C617       C2673   1.485       .  S
C618        C619   1.446       .  A
C618       C1217   1.516       .  S
C619        C620   1.440       .  A
C619       C1265   1.528       .  S
C620        C621   1.418       .  A
C620       C1166   1.516       .  S
C621       C1150   1.489       .  S
C622        C623   1.411       .  A
C622        C627   1.412       .  A
C622       C1169   1.495       .  S
C623        C624   1.408       .  A
C623        H628   1.083       .  S
C624        C625   1.401       .  A
C624       C1233   1.490       .  S
C625        C626   1.401       .  A
C625        H629   1.085       .  S
C626        C627   1.407       .  A
C626       C1134   1.489       .  S
C627        H630   1.083       .  S
O631        C639   1.296       .  A
O631       Co651   2.109   1_565  S
O632        C640   1.270       .  A
O632       Co652   2.030       .  S
O633        C641   1.267       .  A
O633       Co653   1.971       .  S
O634        C642   1.256       .  A
O634       Co654   1.980       .  S
O635        C641   1.278       .  A
O635       Co652   2.026   1_565  S
O636        C642   1.256       .  A
O636       Co651   1.987       .  S
O637        C640   1.258       .  A
O637       Co654   1.962       .  S
O638        C639   1.261       .  A
O638       Co653   1.874       .  S
C639       C2721   1.473       .  S
C640       C1121   1.489       .  S
C641       C2769   1.494       .  S
C642       C1102   1.473       .  S
O643        C656   1.273       .  A
O643       Co651   1.984       .  S
O644        C657   1.255       .  A
O644       Co652   1.969   1_565  S
O645        C658   1.297       .  A
O645       Co653   2.112       .  S
O646        C659   1.272       .  A
O646       Co654   2.032       .  S
O647        C659   1.257       .  A
O647       Co652   1.954       .  S
O648        C658   1.258   1_545  A
O648       Co651   1.859       .  S
O649        C656   1.278       .  A
O649       Co654   2.031       .  S
O650        C657   1.255       .  A
O650       Co653   1.999       .  S
Co651       O655   2.008       .  S
Co652       O655   2.040       .  S
Co653       O655   2.021   1_565  S
Co654       O655   2.041       .  S
C656       C1137   1.496       .  S
C657       C1729   1.483       .  S
C658       C2993   1.475       .  S
C659       C1489   1.470       .  S
C660        C661   1.411       .  A
C660        C665   1.404       .  A
C660       C1118   1.494       .  S
C661        C662   1.412       .  A
C661        H666   1.081       .  S
C662        C663   1.405       .  A
C662       C1553   1.489       .  S
C663        C664   1.402       .  A
C663        H667   1.083       .  S
C664        C665   1.394       .  A
C664       C1086   1.475       .  S
C665        H668   1.085       .  S
C669        C670   1.406       .  A
C669        C674   1.400       .  A
C669       C1073   1.483       .  S
C670        C671   1.402       .  A
C670        H675   1.084       .  S
C671        C672   1.401       .  A
C671       C1153   1.480       .  S
C672        C673   1.404       .  A
C672        H676   1.080       .  S
C673        C674   1.404       .  A
C673       C1105   1.491       .  S
C674        H677   1.083       .  S
C678        C679   1.399       .  A
C678        C683   1.409       .  A
C678       C1054   1.492       .  S
C679        C680   1.398       .  A
C679        H684   1.085       .  S
C680        C681   1.407       .  A
C680       C1246   1.487       .  S
C681        C682   1.410       .  A
C681        H685   1.083       .  S
C682        C683   1.409       .  A
C682       C1041   1.490       .  S
C683        H686   1.082       .  S
C687        C688   1.417       .  A
C687        C692   1.415       .  A
C687       C2929   1.490       .  S
C688        C689   1.418       .  A
C688       C2241   1.490       .  S
C689        C690   1.420       .  A
C689       C1022   1.504       .  S
C690        C691   1.422       .  A
C690       C1006   1.489       .  S
C691        C692   1.415       .  A
C691       C1038   1.501       .  S
C692       C1297   1.495       .  S
O693        C701   1.271       .  A
O693       Co713   2.036       .  S
O694        C702   1.303       .  A
O694       Co714   2.068       .  S
O695        C703   1.267       .  A
O695       Co715   1.862       .  S
O696        C704   1.265       .  A
O696       Co716   1.995   1_565  S
O697        C703   1.301       .  A
O697       Co714   2.066       .  S
O698        C704   1.257       .  A
O698       Co713   1.974       .  S
O699        C702   1.274       .  A
O699       Co716   1.884       .  S
O700        C701   1.263   1_545  A
O700       Co715   1.994       .  S
C701       C2798   1.502       .  S
C702       C1057   1.486       .  S
C703        C993   1.481       .  S
C704       C2401   1.488       .  S
O705        C718   1.268       .  A
O705       Co713   1.979       .  S
O706        C719   1.255       .  A
O706       Co714   1.985       .  S
O707        C720   1.263       .  A
O707       Co715   2.011   1_565  S
O708        C721   1.254       .  A
O708       Co716   1.991       .  S
O709        C721   1.245       .  A
O709       Co714   1.955       .  S
O710        C720   1.256       .  A
O710       Co713   1.965       .  S
O711        C718   1.268       .  A
O711       Co716   2.006   1_565  S
O712        C719   1.246       .  A
O712       Co715   1.961       .  S
Co713       O717   2.070   1_565  S
Co714       O717   2.253       .  S
Co715       O717   1.918       .  S
Co716       O717   1.945       .  S
C718       C2577   1.482       .  S
C719        C958   1.476       .  S
C720       C2625   1.483       .  S
C721        C974   1.489       .  S
O722        C730   1.259       .  A
O722       Co742   1.853       .  S
O723        C731   1.257       .  A
O723       Co743   1.960       .  S
O724        C732   1.256       .  A
O724       Co744   1.994       .  S
O725        C733   1.273       .  A
O725       Co745   2.013   1_655  S
O726        C732   1.256       .  A
O726       Co743   1.970       .  S
O727        C733   1.268       .  A
O727       Co742   1.973       .  S
O728        C731   1.273       .  A
O728       Co745   2.038       .  S
O729        C730   1.301       .  A
O729       Co744   2.138   1_655  S
C730       C1089   1.488       .  S
C731        C929   1.479       .  S
C732        C942   1.480       .  S
C733       C1070   1.488       .  S
O734        C747   1.259       .  A
O734       Co742   1.986       .  S
O735        C748   1.273       .  A
O735       Co743   2.015       .  S
O736        C749   1.259   1_455  A
O736       Co744   1.864       .  S
O737        C750   1.263       .  A
O737       Co745   1.974       .  S
O738        C750   1.272       .  A
O738       Co743   2.023       .  S
O739        C749   1.302       .  A
O739       Co742   2.131       .  S
O740        C747   1.262       .  A
O740       Co745   1.990   1_655  S
O741        C748   1.273       .  A
O741       Co744   1.976       .  S
Co742       O746   1.997   1_655  S
Co743       O746   2.031       .  S
Co744       O746   2.018       .  S
Co745       O746   2.062       .  S
C747       C1182   1.479       .  S
C748        C913   1.487       .  S
C749       C2849   1.484       .  S
C750        C897   1.480       .  S
C751        C752   1.398       .  A
C751        C756   1.409       .  A
C751        C945   1.485       .  S
C752        C753   1.389       .  A
C752        H757   1.085       .  S
C753        C754   1.399       .  A
C753        C961   1.467       .  S
C754        C755   1.405       .  A
C754        H758   1.084       .  S
C755        C756   1.411       .  A
C755        C878   1.481       .  S
C756        H759   1.082       .  S
C760        C761   1.402       .  A
C760        C765   1.405       .  A
C760        C894   1.489       .  S
C761        C762   1.402       .  A
C761        H766   1.084       .  S
C762        C763   1.410       .  A
C762       C2289   1.486       .  S
C763        C764   1.409       .  A
C763        H767   1.084       .  S
C764        C765   1.404       .  A
C764       C1025   1.488       .  S
C765        H768   1.082       .  S
C769        C770   1.404       .  A
C769        C774   1.402       .  A
C769       C1009   1.476       .  S
C770        C771   1.403       .  A
C770        H775   1.084       .  S
C771        C772   1.398       .  A
C771        C926   1.470       .  S
C772        C773   1.397       .  A
C772        H776   1.085       .  S
C773        C774   1.402       .  A
C773        C977   1.472       .  S
C774        H777   1.084       .  S
C778        C779   1.403       .  A
C778        C783   1.404       .  A
C778       C1521   1.483       .  S
C779        C780   1.402       .  A
C779        H784   1.084       .  S
C780        C781   1.405       .  A
C780       C1441   1.484       .  S
C781        C782   1.414       .  A
C781        H785   1.082       .  S
C782        C783   1.411       .  A
C782       C1409   1.517       .  S
C783        H786   1.073       .  S
C787        C788   1.414       .  A
C787        C792   1.407       .  A
C787       C2081   1.489       .  S
C788        C789   1.410       .  A
C788        H793   1.083       .  S
C789        C790   1.393       .  A
C789       C1969   1.481       .  S
C790        C791   1.398       .  A
C790        H794   1.085       .  S
C791        C792   1.403       .  A
C791       C2001   1.483       .  S
C792        H795   1.082       .  S
C796        C797   1.417       .  A
C796        C801   1.410       .  A
C796        C865   1.495       .  S
C797        C798   1.413       .  A
C797        H802   1.083       .  S
C798        C799   1.399       .  A
C798       C2030   1.493       .  S
C799        C800   1.399       .  A
C799        H803   1.083       .  S
C800        C801   1.404       .  A
C800       C1374   1.490       .  S
C801        H804   1.084       .  S
C805        C806   1.407       .  A
C805        C810   1.404       .  A
C805        C846   1.476       .  S
C806        C807   1.405       .  A
C806        H811   1.084       .  S
C807        C808   1.396       .  A
C807       C1470   1.476       .  S
C808        C809   1.390       .  A
C808        H812   1.085       .  S
C809        C810   1.401       .  A
C809        C990   1.465       .  S
C810        H813   1.084       .  S
C814        C815   1.405       .  A
C814        C819   1.413       .  A
C814        C833   1.486       .  S
C815        C816   1.401       .  A
C815        H820   1.084       .  S
C816        C817   1.391       .  A
C816       C1937   1.470       .  S
C817        C818   1.398       .  A
C817        H821   1.085       .  S
C818        C819   1.411       .  A
C818        C910   1.486       .  S
C819        H822   1.083       .  S
C823        C824   1.422       .  A
C823        C828   1.419       .  A
C823        C862   1.509       .  S
C824        C825   1.420       .  A
C824       C1889   1.485       .  S
C825        C826   1.418       .  A
C825        C830   1.505       .  S
C826        C827   1.421       .  A
C826        C881   1.497       .  S
C827        C828   1.422       .  A
C827        C849   1.494       .  S
C828       C1329   1.495       .  S
C829        C830   1.406       .  A
C829        C834   1.407       .  A
C829        H836   1.079       .  S
C830        C831   1.416       .  A
C831        C832   1.408       .  A
C831        C838   1.506       .  S
C832        C833   1.402       .  A
C832        H837   1.084       .  S
C833        C834   1.411       .  A
C834        C835   1.506       .  S
C835        H839   1.111       .  S
C835        H840   1.110       .  S
C835        H841   1.110       .  S
C838        H842   1.105       .  S
C838        H843   1.105       .  S
C838        H844   1.111       .  S
C845        C846   1.402       .  A
C845        C850   1.406       .  A
C845        H852   1.084       .  S
C846        C847   1.407       .  A
C847        C848   1.400       .  A
C847        C854   1.506       .  S
C848        C849   1.405       .  A
C848        H853   1.084       .  S
C849        C850   1.415       .  A
C850        C851   1.503       .  S
C851        H855   1.111       .  S
C851        H856   1.102       .  S
C851        H857   1.101       .  S
C854        H858   1.110       .  S
C854        H859   1.110       .  S
C854        H860   1.111       .  S
C861        C862   1.405       .  A
C861        C866   1.408       .  A
C861        H868   1.084       .  S
C862        C863   1.420       .  A
C863        C864   1.410       .  A
C863        C870   1.501       .  S
C864        C865   1.403       .  A
C864        H869   1.084       .  S
C865        C866   1.415       .  A
C866        C867   1.507       .  S
C867        H871   1.111       .  S
C867        H872   1.110       .  S
C867        H873   1.109       .  S
C870        H874   1.110       .  S
C870        H875   1.103       .  S
C870        H876   1.110       .  S
C877        C878   1.404       .  A
C877        C882   1.407       .  A
C877        H884   1.084       .  S
C878        C879   1.409       .  A
C879        C880   1.401       .  A
C879        C886   1.507       .  S
C880        C881   1.404       .  A
C880        H885   1.084       .  S
C881        C882   1.416       .  A
C882        C883   1.503       .  S
C883        H887   1.110       .  S
C883        H888   1.110       .  S
C883        H889   1.104       .  S
C886        H890   1.110       .  S
C886        H891   1.110       .  S
C886        H892   1.111       .  S
C893        C894   1.412       .  A
C893        C898   1.411       .  A
C893        H900   1.084       .  S
C894        C895   1.416       .  A
C895        C896   1.397       .  A
C895        C902   1.512       .  S
C896        C897   1.402       .  A
C896        H901   1.077       .  S
C897        C898   1.409       .  A
C898        C899   1.504       .  S
C899        H903   1.111       .  S
C899        H904   1.110       .  S
C899        H905   1.110       .  S
C902        H906   1.110       .  S
C902        H907   1.107       .  S
C902        H908   1.111       .  S
C909        C910   1.402       .  A
C909        C914   1.410       .  A
C909        H916   1.084       .  S
C910        C911   1.419       .  A
C911        C912   1.398       .  A
C911        C918   1.511       .  S
C912        C913   1.403       .  A
C912        H917   1.084       .  S
C913        C914   1.421       .  A
C914        C915   1.508       .  S
C915        H919   1.111       .  S
C915        H920   1.109       .  S
C915        H921   1.110       .  S
C918        H922   1.107       .  S
C918        H923   1.111       .  S
C918        H924   1.111       .  S
C925        C926   1.401       .  A
C925        C930   1.407       .  A
C925        H932   1.084       .  S
C926        C927   1.408       .  A
C927        C928   1.397       .  A
C927        C934   1.508       .  S
C928        C929   1.404       .  A
C928        H933   1.081       .  S
C929        C930   1.411       .  A
C930        C931   1.495       .  S
C931        H935   1.111       .  S
C931        H936   1.111       .  S
C931        H937   1.106       .  S
C934        H938   1.109       .  S
C934        H939   1.110       .  S
C934        H940   1.111       .  S
C941        C942   1.409       .  A
C941        C946   1.408       .  A
C941        H948   1.084       .  S
C942        C943   1.417       .  A
C943        C944   1.395       .  A
C943        C950   1.511       .  S
C944        C945   1.404       .  A
C944        H949   1.083       .  S
C945        C946   1.412       .  A
C946        C947   1.506       .  S
C947        H951   1.111       .  S
C947        H952   1.110       .  S
C947        H953   1.108       .  S
C950        H954   1.110       .  S
C950        H955   1.107       .  S
C950        H956   1.111       .  S
C957        C958   1.404       .  A
C957        C962   1.395       .  A
C957        H964   1.084       .  S
C958        C959   1.420       .  A
C959        C960   1.405       .  A
C959        C966   1.508       .  S
C960        C961   1.399       .  A
C960        H965   1.084       .  S
C961        C962   1.409       .  A
C962        C963   1.509       .  S
C963        H967   1.111       .  S
C963        H968   1.108       .  S
C963        H969   1.110       .  S
C966        H970   1.110       .  S
C966        H971   1.110       .  S
C966        H972   1.111       .  S
C973        C974   1.408       .  A
C973        C978   1.407       .  A
C973        H980   1.084       .  S
C974        C975   1.429       .  A
C975        C976   1.396       .  A
C975        C982   1.513       .  S
C976        C977   1.393       .  A
C976        H981   1.085       .  S
C977        C978   1.409       .  A
C978        C979   1.505       .  S
C979        H983   1.111       .  S
C979        H984   1.110       .  S
C979        H985   1.110       .  S
C982        H986   1.110       .  S
C982        H987   1.110       .  S
C982        H988   1.111       .  S
C989        C990   1.403       .  A
C989        C994   1.407       .  A
C989        H996   1.084       .  S
C990        C991   1.409       .  A
C991        C992   1.390       .  A
C991        C998   1.511       .  S
C992        C993   1.407       .  A
C992        H997   1.084       .  S
C993        C994   1.417       .  A
C994        C995   1.506       .  S
C995        H999   1.111       .  S
C995       H1000   1.110       .  S
C995       H1001   1.110       .  S
C998       H1002   1.111       .  S
C998       H1003   1.106       .  S
C998       H1004   1.111       .  S
C1005      C1006   1.404       .  A
C1005      C1010   1.405       .  A
C1005      H1012   1.081       .  S
C1006      C1007   1.417       .  A
C1007      C1008   1.402       .  A
C1007      C1014   1.508       .  S
C1008      C1009   1.398       .  A
C1008      H1013   1.084       .  S
C1009      C1010   1.412       .  A
C1010      C1011   1.506       .  S
C1011      H1015   1.111       .  S
C1011      H1016   1.110       .  S
C1011      H1017   1.110       .  S
C1014      H1018   1.108       .  S
C1014      H1019   1.100       .  S
C1014      H1020   1.110       .  S
C1021      C1022   1.405       .  A
C1021      C1026   1.406       .  A
C1021      H1028   1.084       .  S
C1022      C1023   1.416       .  A
C1023      C1024   1.409       .  A
C1023      C1030   1.502       .  S
C1024      C1025   1.403       .  A
C1024      H1029   1.084       .  S
C1025      C1026   1.411       .  A
C1026      C1027   1.506       .  S
C1027      H1031   1.111       .  S
C1027      H1032   1.110       .  S
C1027      H1033   1.109       .  S
C1030      H1034   1.104       .  S
C1030      H1035   1.105       .  S
C1030      H1036   1.111       .  S
C1037      C1038   1.403       .  A
C1037      C1042   1.407       .  A
C1037      H1044   1.076       .  S
C1038      C1039   1.416       .  A
C1039      C1040   1.409       .  A
C1039      C1046   1.507       .  S
C1040      C1041   1.403       .  A
C1040      H1045   1.084       .  S
C1041      C1042   1.414       .  A
C1042      C1043   1.507       .  S
C1043      H1047   1.111       .  S
C1043      H1048   1.109       .  S
C1043      H1049   1.110       .  S
C1046      H1050   1.110       .  S
C1046      H1051   1.106       .  S
C1046      H1052   1.111       .  S
C1053      C1054   1.412       .  A
C1053      C1058   1.410       .  A
C1053      H1060   1.084       .  S
C1054      C1055   1.416       .  A
C1055      C1056   1.400       .  A
C1055      C1062   1.510       .  S
C1056      C1057   1.406       .  A
C1056      H1061   1.084       .  S
C1057      C1058   1.410       .  A
C1058      C1059   1.505       .  S
C1059      H1063   1.111       .  S
C1059      H1064   1.109       .  S
C1059      H1065   1.110       .  S
C1062      H1066   1.108       .  S
C1062      H1067   1.110       .  S
C1062      H1068   1.111       .  S
C1069      C1070   1.406       .  A
C1069      C1074   1.403       .  A
C1069      H1076   1.084       .  S
C1070      C1071   1.418       .  A
C1071      C1072   1.400       .  A
C1071      C1078   1.502       .  S
C1072      C1073   1.400       .  A
C1072      H1077   1.084       .  S
C1073      C1074   1.417       .  A
C1074      C1075   1.509       .  S
C1075      H1079   1.111       .  S
C1075      H1080   1.107       .  S
C1075      H1081   1.110       .  S
C1078      H1082   1.109       .  S
C1078      H1083   1.098       .  S
C1078      H1084   1.111       .  S
C1085      C1086   1.405       .  A
C1085      C1090   1.414       .  A
C1085      H1092   1.084       .  S
C1086      C1087   1.408       .  A
C1087      C1088   1.390       .  A
C1087      C1094   1.510       .  S
C1088      C1089   1.408       .  A
C1088      H1093   1.083       .  S
C1089      C1090   1.418       .  A
C1090      C1091   1.507       .  S
C1091      H1095   1.111       .  S
C1091      H1096   1.110       .  S
C1091      H1097   1.109       .  S
C1094      H1098   1.110       .  S
C1094      H1099   1.105       .  S
C1094      H1100   1.111       .  S
C1101      C1102   1.401       .  A
C1101      C1106   1.397       .  A
C1101      H1108   1.082       .  S
C1102      C1103   1.407       .  A
C1103      C1104   1.405       .  A
C1103      C1110   1.505       .  S
C1104      C1105   1.412       .  A
C1104      H1109   1.084       .  S
C1105      C1106   1.421       .  A
C1106      C1107   1.512       .  S
C1107      H1111   1.111       .  S
C1107      H1112   1.110       .  S
C1107      H1113   1.106       .  S
C1110      H1114   1.110       .  S
C1110      H1115   1.108       .  S
C1110      H1116   1.111       .  S
C1117      C1118   1.404       .  A
C1117      C1122   1.398       .  A
C1117      H1124   1.084       .  S
C1118      C1119   1.416       .  A
C1119      C1120   1.412       .  A
C1119      C1126   1.506       .  S
C1120      C1121   1.409       .  A
C1120      H1125   1.084       .  S
C1121      C1122   1.420       .  A
C1122      C1123   1.512       .  S
C1123      H1127   1.111       .  S
C1123      H1128   1.110       .  S
C1123      H1129   1.110       .  S
C1126      H1130   1.110       .  S
C1126      H1131   1.107       .  S
C1126      H1132   1.111       .  S
C1133      C1134   1.397       .  A
C1133      C1138   1.398       .  A
C1133      H1140   1.085       .  S
C1134      C1135   1.412       .  A
C1135      C1136   1.415       .  A
C1135      C1142   1.504       .  S
C1136      C1137   1.410       .  A
C1136      H1141   1.083       .  S
C1137      C1138   1.420       .  A
C1138      C1139   1.500       .  S
C1139      H1143   1.111       .  S
C1139      H1144   1.107       .  S
C1139      H1145   1.108       .  S
C1142      H1146   1.109       .  S
C1142      H1147   1.111       .  S
C1142      H1148   1.111       .  S
C1149      C1150   1.402       .  A
C1149      C1154   1.406       .  A
C1149      H1156   1.084       .  S
C1150      C1151   1.420       .  A
C1151      C1152   1.399       .  A
C1151      C1158   1.511       .  S
C1152      C1153   1.399       .  A
C1152      H1157   1.085       .  S
C1153      C1154   1.415       .  A
C1154      C1155   1.506       .  S
C1155      H1159   1.111       .  S
C1155      H1160   1.110       .  S
C1155      H1161   1.109       .  S
C1158      H1162   1.110       .  S
C1158      H1163   1.108       .  S
C1158      H1164   1.110       .  S
C1165      C1166   1.408       .  A
C1165      C1170   1.406       .  A
C1165      H1172   1.076       .  S
C1166      C1167   1.421       .  A
C1167      C1168   1.411       .  A
C1167      C1174   1.506       .  S
C1168      C1169   1.404       .  A
C1168      H1173   1.084       .  S
C1169      C1170   1.414       .  A
C1170      C1171   1.508       .  S
C1171      H1175   1.111       .  S
C1171      H1176   1.108       .  S
C1171      H1177   1.110       .  S
C1174      H1178   1.105       .  S
C1174      H1179   1.110       .  S
C1174      H1180   1.110       .  S
C1181      C1182   1.403       .  A
C1181      C1186   1.400       .  A
C1181      H1188   1.082       .  S
C1182      C1183   1.406       .  A
C1183      C1184   1.408       .  A
C1183      C1190   1.505       .  S
C1184      C1185   1.415       .  A
C1184      H1189   1.084       .  S
C1185      C1186   1.420       .  A
C1186      C1187   1.510       .  S
C1187      H1191   1.107       .  S
C1187      H1192   1.107       .  S
C1187      H1193   1.110       .  S
C1190      H1194   1.110       .  S
C1190      H1195   1.110       .  S
C1190      H1196   1.111       .  S
C1197      C1198   1.402       .  A
C1197      C1202   1.405       .  A
C1197      H1204   1.085       .  S
C1198      C1199   1.408       .  A
C1199      C1200   1.406       .  A
C1199      C1206   1.504       .  S
C1200      C1201   1.407       .  A
C1200      H1205   1.084       .  S
C1201      C1202   1.417       .  A
C1202      C1203   1.502       .  S
C1203      H1207   1.110       .  S
C1203      H1208   1.103       .  S
C1203      H1209   1.110       .  S
C1206      H1210   1.110       .  S
C1206      H1211   1.110       .  S
C1206      H1212   1.111       .  S
C1213      C1214   1.402       .  A
C1213      C1218   1.407       .  A
C1213      H1220   1.085       .  S
C1214      C1215   1.414       .  A
C1215      C1216   1.408       .  A
C1215      C1222   1.507       .  S
C1216      C1217   1.408       .  A
C1216      H1221   1.082       .  S
C1217      C1218   1.428       .  A
C1218      C1219   1.506       .  S
C1219      H1223   1.108       .  S
C1219      H1224   1.106       .  S
C1219      H1225   1.110       .  S
C1222      H1226   1.110       .  S
C1222      H1227   1.108       .  S
C1222      H1228   1.111       .  S
C1229      C1230   1.413       .  A
C1229      C1234   1.410       .  A
C1229      H1236   1.083       .  S
C1230      C1231   1.423       .  A
C1231      C1232   1.404       .  A
C1231      C1238   1.506       .  S
C1232      C1233   1.401       .  A
C1232      H1237   1.085       .  S
C1233      C1234   1.410       .  A
C1234      C1235   1.505       .  S
C1235      H1239   1.111       .  S
C1235      H1240   1.110       .  S
C1235      H1241   1.109       .  S
C1238      H1242   1.110       .  S
C1238      H1243   1.109       .  S
C1238      H1244   1.111       .  S
C1245      C1246   1.405       .  A
C1245      C1250   1.398       .  A
C1245      H1252   1.084       .  S
C1246      C1247   1.414       .  A
C1247      C1248   1.409       .  A
C1247      C1254   1.506       .  S
C1248      C1249   1.406       .  A
C1248      H1253   1.084       .  S
C1249      C1250   1.409       .  A
C1250      C1251   1.502       .  S
C1251      H1255   1.111       .  S
C1251      H1256   1.104       .  S
C1251      H1257   1.110       .  S
C1254      H1258   1.108       .  S
C1254      H1259   1.110       .  S
C1254      H1260   1.111       .  S
C1261      C1262   1.405       .  A
C1261      C1266   1.387       .  A
C1261      H1268   1.080       .  S
C1262      C1263   1.425       .  A
C1263      C1264   1.411       .  A
C1263      C1270   1.507       .  S
C1264      C1265   1.413       .  A
C1264      H1269   1.076       .  S
C1265      C1266   1.407       .  A
C1266      C1267   1.506       .  S
C1267      H1271   1.113       .  S
C1267      H1272   1.109       .  S
C1267      H1273   1.105       .  S
C1270      H1274   1.111       .  S
C1270      H1275   1.106       .  S
C1270      H1276   1.111       .  S
C1277      C1278   1.402       .  A
C1277      C1282   1.400       .  A
C1277      H1284   1.084       .  S
C1278      C1279   1.406       .  A
C1279      C1280   1.394       .  A
C1279      C1286   1.508       .  S
C1280      C1281   1.404       .  A
C1280      H1285   1.082       .  S
C1281      C1282   1.408       .  A
C1282      C1283   1.504       .  S
C1283      H1287   1.111       .  S
C1283      H1288   1.109       .  S
C1283      H1289   1.109       .  S
C1286      H1290   1.109       .  S
C1286      H1291   1.110       .  S
C1286      H1292   1.111       .  S
C1293      C1294   1.399       .  A
C1293      C1298   1.402       .  A
C1293      H1300   1.085       .  S
C1294      C1295   1.413       .  A
C1295      C1296   1.409       .  A
C1295      C1302   1.505       .  S
C1296      C1297   1.404       .  A
C1296      H1301   1.084       .  S
C1297      C1298   1.419       .  A
C1298      C1299   1.508       .  S
C1299      H1303   1.110       .  S
C1299      H1304   1.110       .  S
C1299      H1305   1.106       .  S
C1302      H1306   1.110       .  S
C1302      H1307   1.110       .  S
C1302      H1308   1.111       .  S
C1309      C1310   1.400       .  A
C1309      C1314   1.406       .  A
C1309      H1316   1.084       .  S
C1310      C1311   1.409       .  A
C1311      C1312   1.400       .  A
C1311      C1318   1.508       .  S
C1312      C1313   1.408       .  A
C1312      H1317   1.084       .  S
C1313      C1314   1.420       .  A
C1314      C1315   1.506       .  S
C1315      H1319   1.111       .  S
C1315      H1320   1.110       .  S
C1315      H1321   1.110       .  S
C1318      H1322   1.110       .  S
C1318      H1323   1.109       .  S
C1318      H1324   1.111       .  S
C1325      C1326   1.399       .  A
C1325      C1330   1.402       .  A
C1325      H1332   1.085       .  S
C1326      C1327   1.412       .  A
C1327      C1328   1.407       .  A
C1327      C1334   1.505       .  S
C1328      C1329   1.406       .  A
C1328      H1333   1.083       .  S
C1329      C1330   1.417       .  A
C1330      C1331   1.506       .  S
C1331      H1335   1.110       .  S
C1331      H1336   1.109       .  S
C1331      H1337   1.107       .  S
C1334      H1338   1.110       .  S
C1334      H1339   1.110       .  S
C1334      H1340   1.111       .  S
C1341      C1342   1.400       .  A
C1341      C1346   1.393       .  A
C1341      H1348   1.085       .  S
C1342      C1343   1.408       .  A
C1343      C1344   1.406       .  A
C1343      C1350   1.504   1_556  S
C1344      C1345   1.408       .  A
C1344      H1349   1.084       .  S
C1345      C1346   1.416       .  A
C1346      C1347   1.510       .  S
C1347      H1351   1.111       .  S
C1347      H1352   1.110       .  S
C1347      H1353   1.107       .  S
C1350      H1354   1.111       .  S
C1350      H1355   1.109       .  S
C1350      H1356   1.111       .  S
C1357      C1358   1.396       .  A
C1357      C1362   1.394       .  A
C1357      H1364   1.085       .  S
C1358      C1359   1.410       .  A
C1359      C1360   1.413       .  A
C1359      C1366   1.504       .  S
C1360      C1361   1.411       .  A
C1360      H1365   1.084   1_556  S
C1361      C1362   1.420       .  A
C1362      C1363   1.500       .  S
C1363      H1367   1.111       .  S
C1363      H1368   1.109       .  S
C1363      H1369   1.105       .  S
C1366      H1370   1.111       .  S
C1366      H1371   1.109       .  S
C1366      H1372   1.111       .  S
C1373      C1374   1.407       .  A
C1373      C1378   1.414       .  A
C1373      H1380   1.084       .  S
C1374      C1375   1.416       .  A
C1375      C1376   1.394       .  A
C1375      C1382   1.510       .  S
C1376      C1377   1.401       .  A
C1376      H1381   1.079       .  S
C1377      C1378   1.417       .  A
C1378      C1379   1.502       .  S
C1379      H1383   1.111       .  S
C1379      H1384   1.104       .  S
C1379      H1385   1.107       .  S
C1382      H1386   1.107       .  S
C1382      H1387   1.110       .  S
C1382      H1388   1.109       .  S
C1389      C1390   1.406       .  A
C1389      C1394   1.411       .  A
C1389      H1396   1.084       .  S
C1390      C1391   1.408       .  A
C1391      C1392   1.393       .  A
C1391      C1398   1.508       .  S
C1392      C1393   1.401       .  A
C1392      H1397   1.083       .  S
C1393      C1394   1.410       .  A
C1394      C1395   1.504       .  S
C1395      H1399   1.111       .  S
C1395      H1400   1.110       .  S
C1395      H1401   1.110       .  S
C1398      H1402   1.101       .  S
C1398      H1403   1.110       .  S
C1398      H1404   1.110       .  S
C1405      C1406   1.398       .  A
C1405      C1410   1.398       .  A
C1405      H1412   1.084       .  S
C1406      C1407   1.406       .  A
C1407      C1408   1.409       .  A
C1407      C1414   1.506       .  S
C1408      C1409   1.419       .  A
C1408      H1413   1.082       .  S
C1409      C1410   1.431       .  A
C1410      C1411   1.507       .  S
C1411      H1415   1.110       .  S
C1411      H1416   1.107       .  S
C1411      H1417   1.099       .  S
C1414      H1418   1.109       .  S
C1414      H1419   1.110       .  S
C1414      H1420   1.111       .  S
C1421      C1422   1.402       .  A
C1421      C1426   1.411       .  A
C1421      H1428   1.084       .  S
C1422      C1423   1.412       .  A
C1423      C1424   1.393       .  A
C1423      C1430   1.511       .  S
C1424      C1425   1.407       .  A
C1424      H1429   1.084   1_556  S
C1425      C1426   1.421       .  A
C1426      C1427   1.507       .  S
C1427      H1431   1.111       .  S
C1427      H1432   1.110       .  S
C1427      H1433   1.109       .  S
C1430      H1434   1.111   1_556  S
C1430      H1435   1.107       .  S
C1430      H1436   1.110       .  S
C1437      C1438   1.406       .  A
C1437      C1442   1.414       .  A
C1437      H1444   1.084       .  S
C1438      C1439   1.428       .  A
C1439      C1440   1.398       .  A
C1439      C1446   1.506       .  S
C1440      C1441   1.392       .  A
C1440      H1445   1.086       .  S
C1441      C1442   1.413       .  A
C1442      C1443   1.504       .  S
C1443      H1447   1.111       .  S
C1443      H1448   1.109       .  S
C1443      H1449   1.111       .  S
C1446      H1450   1.111       .  S
C1446      H1451   1.094       .  S
C1446      H1452   1.109       .  S
C1453      C1454   1.406       .  A
C1453      C1458   1.413       .  A
C1453      H1460   1.084       .  S
C1454      C1455   1.416       .  A
C1455      C1456   1.398       .  A
C1455      C1462   1.506       .  S
C1456      C1457   1.401       .  A
C1456      H1461   1.082       .  S
C1457      C1458   1.417       .  A
C1458      C1459   1.506       .  S
C1459      H1463   1.111       .  S
C1459      H1464   1.110       .  S
C1459      H1465   1.110       .  S
C1462      H1466   1.110       .  S
C1462      H1467   1.106       .  S
C1462      H1468   1.109       .  S
C1469      C1470   1.401       .  A
C1469      C1474   1.406       .  A
C1469      H1476   1.084       .  S
C1470      C1471   1.416       .  A
C1471      C1472   1.393       .  A
C1471      C1478   1.510       .  S
C1472      C1473   1.401       .  A
C1472      H1477   1.083       .  S
C1473      C1474   1.418       .  A
C1474      C1475   1.507       .  S
C1475      H1479   1.111       .  S
C1475      H1480   1.109       .  S
C1475      H1481   1.107       .  S
C1478      H1482   1.106       .  S
C1478      H1483   1.110       .  S
C1478      H1484   1.111       .  S
C1485      C1486   1.406       .  A
C1485      C1490   1.409       .  A
C1485      H1492   1.084       .  S
C1486      C1487   1.406       .  A
C1487      C1488   1.396       .  A
C1487      C1494   1.508       .  S
C1488      C1489   1.404       .  A
C1488      H1493   1.083       .  S
C1489      C1490   1.408       .  A
C1490      C1491   1.504       .  S
C1491      H1495   1.111       .  S
C1491      H1496   1.110       .  S
C1491      H1497   1.111       .  S
C1494      H1498   1.111       .  S
C1494      H1499   1.110       .  S
C1494      H1500   1.111       .  S
C1501      C1502   1.402       .  A
C1501      C1506   1.400       .  A
C1501      H1508   1.081       .  S
C1502      C1503   1.411       .  A
C1503      C1504   1.411       .  A
C1503      C1510   1.504       .  S
C1504      C1505   1.409       .  A
C1504      H1509   1.084       .  S
C1505      C1506   1.417       .  A
C1506      C1507   1.511       .  S
C1507      H1511   1.111       .  S
C1507      H1512   1.111       .  S
C1507      H1513   1.106       .  S
C1510      H1514   1.110       .  S
C1510      H1515   1.108       .  S
C1510      H1516   1.111       .  S
C1517      C1518   1.403       .  A
C1517      C1522   1.404       .  A
C1517      H1524   1.081       .  S
C1518      C1519   1.419       .  A
C1519      C1520   1.407       .  A
C1519      C1526   1.502       .  S
C1520      C1521   1.398       .  A
C1520      H1525   1.084       .  S
C1521      C1522   1.414       .  A
C1522      C1523   1.506       .  S
C1523      H1527   1.111       .  S
C1523      H1528   1.110       .  S
C1523      H1529   1.099       .  S
C1526      H1530   1.109       .  S
C1526      H1531   1.106       .  S
C1526      H1532   1.110       .  S
C1533      C1534   1.413       .  A
C1533      C1538   1.412       .  A
C1533      H1540   1.078       .  S
C1534      C1535   1.407       .  A
C1535      C1536   1.399       .  A
C1535      C1542   1.510       .  S
C1536      C1537   1.412       .  A
C1536      H1541   1.082       .  S
C1537      C1538   1.426       .  A
C1538      C1539   1.508       .  S
C1539      H1543   1.111       .  S
C1539      H1544   1.107       .  S
C1539      H1545   1.110       .  S
C1542      H1546   1.108       .  S
C1542      H1547   1.106       .  S
C1542      H1548   1.113       .  S
C1549      C1550   1.407       .  A
C1549      C1554   1.407       .  A
C1549      H1556   1.082       .  S
C1550      C1551   1.419       .  A
C1551      C1552   1.403       .  A
C1551      C1558   1.500       .  S
C1552      C1553   1.398       .  A
C1552      H1557   1.084       .  S
C1553      C1554   1.416       .  A
C1554      C1555   1.504       .  S
C1555      H1559   1.111       .  S
C1555      H1560   1.107       .  S
C1555      H1561   1.110       .  S
C1558      H1562   1.108       .  S
C1558      H1563   1.106       .  S
C1558      H1564   1.111       .  S
C1565      C1566   1.400       .  A
C1565      C1570   1.404       .  A
C1565      H1572   1.084       .  S
C1566      C1567   1.414       .  A
C1567      C1568   1.411       .  A
C1567      C1574   1.505       .  S
C1568      C1569   1.405       .  A
C1568      H1573   1.084       .  S
C1569      C1570   1.419       .  A
C1570      C1571   1.508       .  S
C1571      H1575   1.110       .  S
C1571      H1576   1.108       .  S
C1571      H1577   1.110       .  S
C1574      H1578   1.110       .  S
C1574      H1579   1.110       .  S
C1574      H1580   1.111       .  S
C1581      C1582   1.406       .  A
C1581      C1586   1.401       .  A
C1581      H1588   1.084       .  S
C1582      C1583   1.419       .  A
C1583      C1584   1.408       .  A
C1583      C1590   1.503       .  S
C1584      C1585   1.403       .  A
C1584      H1589   1.084       .  S
C1585      C1586   1.418       .  A
C1586      C1587   1.510       .  S
C1587      H1591   1.111       .  S
C1587      H1592   1.107       .  S
C1587      H1593   1.110       .  S
C1590      H1594   1.109       .  S
C1590      H1595   1.105       .  S
C1590      H1596   1.111       .  S
C1597      C1598   1.407       .  A
C1597      C1602   1.402       .  A
C1597      H1604   1.084       .  S
C1598      C1599   1.417       .  A
C1599      C1600   1.410       .  A
C1599      C1606   1.508       .  S
C1600      C1601   1.411       .  A
C1600      H1605   1.084       .  S
C1601      C1602   1.420       .  A
C1602      C1603   1.507       .  S
C1603      H1607   1.111       .  S
C1603      H1608   1.110       .  S
C1603      H1609   1.102       .  S
C1606      H1610   1.110       .  S
C1606      H1611   1.106       .  S
C1606      H1612   1.111       .  S
C1613      C1614   1.396       .  A
C1613      C1618   1.395       .  A
C1613      H1620   1.085       .  S
C1614      C1615   1.415       .  A
C1615      C1616   1.405       .  A
C1615      C1622   1.506       .  S
C1616      C1617   1.403       .  A
C1616      H1621   1.084       .  S
C1617      C1618   1.423       .  A
C1618      C1619   1.511       .  S
C1619      H1623   1.106       .  S
C1619      H1624   1.110       .  S
C1619      H1625   1.111       .  S
C1622      H1626   1.109       .  S
C1622      H1627   1.110       .  S
C1622      H1628   1.110       .  S
C1629      C1630   1.398       .  A
C1629      C1634   1.399       .  A
C1629      H1636   1.085       .  S
C1630      C1631   1.408       .  A
C1631      C1632   1.408       .  A
C1631      C1638   1.506       .  S
C1632      C1633   1.412       .  A
C1632      H1637   1.083       .  S
C1633      C1634   1.424       .  A
C1634      C1635   1.507       .  S
C1635      H1639   1.111       .  S
C1635      H1640   1.108       .  S
C1635      H1641   1.109       .  S
C1638      H1642   1.109       .  S
C1638      H1643   1.110       .  S
C1638      H1644   1.111       .  S
C1645      C1646   1.407       .  A
C1645      C1650   1.406       .  A
C1645      H1652   1.084       .  S
C1646      C1647   1.430       .  A
C1647      C1648   1.397       .  A
C1647      C1654   1.513       .  S
C1648      C1649   1.395       .  A
C1648      H1653   1.085       .  S
C1649      C1650   1.413       .  A
C1650      C1651   1.507       .  S
C1651      H1655   1.111       .  S
C1651      H1656   1.108       .  S
C1651      H1657   1.110       .  S
C1654      H1658   1.108       .  S
C1654      H1659   1.109       .  S
C1654      H1660   1.111       .  S
C1661      C1662   1.403       .  A
C1661      C1666   1.404       .  A
C1661      H1668   1.084       .  S
C1662      C1663   1.412       .  A
C1663      C1664   1.398       .  A
C1663      C1670   1.507       .  S
C1664      C1665   1.403       .  A
C1664      H1669   1.083       .  S
C1665      C1666   1.413       .  A
C1666      C1667   1.503       .  S
C1667      H1671   1.111       .  S
C1667      H1672   1.110       .  S
C1667      H1673   1.108       .  S
C1670      H1674   1.110       .  S
C1670      H1675   1.108       .  S
C1670      H1676   1.111       .  S
C1677      C1678   1.403       .  A
C1677      C1682   1.408       .  A
C1677      H1684   1.084       .  S
C1678      C1679   1.410       .  A
C1679      C1680   1.402       .  A
C1679      C1686   1.506       .  S
C1680      C1681   1.403       .  A
C1680      H1685   1.084       .  S
C1681      C1682   1.416       .  A
C1682      C1683   1.504       .  S
C1683      H1687   1.110       .  S
C1683      H1688   1.106       .  S
C1683      H1689   1.110       .  S
C1686      H1690   1.110       .  S
C1686      H1691   1.110       .  S
C1686      H1692   1.111       .  S
C1693      C1694   1.403       .  A
C1693      C1698   1.408       .  A
C1693      H1700   1.084       .  S
C1694      C1695   1.418       .  A
C1695      C1696   1.402       .  A
C1695      C1702   1.509       .  S
C1696      C1697   1.399       .  A
C1696      H1701   1.085       .  S
C1697      C1698   1.414       .  A
C1698      C1699   1.505       .  S
C1699      H1703   1.111       .  S
C1699      H1704   1.108       .  S
C1699      H1705   1.110       .  S
C1702      H1706   1.108       .  S
C1702      H1707   1.110       .  S
C1702      H1708   1.110       .  S
C1709      C1710   1.405       .  A
C1709      C1714   1.406       .  A
C1709      H1716   1.084       .  S
C1710      C1711   1.412       .  A
C1711      C1712   1.399       .  A
C1711      C1718   1.508       .  S
C1712      C1713   1.401       .  A
C1712      H1717   1.085       .  S
C1713      C1714   1.413       .  A
C1714      C1715   1.504       .  S
C1715      H1719   1.110       .  S
C1715      H1720   1.110       .  S
C1715      H1721   1.107       .  S
C1718      H1722   1.110       .  S
C1718      H1723   1.108       .  S
C1718      H1724   1.111       .  S
C1725      C1726   1.403       .  A
C1725      C1730   1.409       .  A
C1725      H1732   1.084       .  S
C1726      C1727   1.416       .  A
C1727      C1728   1.395       .  A
C1727      C1734   1.510       .  S
C1728      C1729   1.403       .  A
C1728      H1733   1.085       .  S
C1729      C1730   1.419       .  A
C1730      C1731   1.507       .  S
C1731      H1735   1.111       .  S
C1731      H1736   1.109       .  S
C1731      H1737   1.110       .  S
C1734      H1738   1.110       .  S
C1734      H1739   1.107       .  S
C1734      H1740   1.111       .  S
C1741      C1742   1.402       .  A
C1741      C1746   1.396       .  A
C1741      H1748   1.083       .  S
C1742      C1743   1.413       .  A
C1743      C1744   1.409       .  A
C1743      C1750   1.506       .  S
C1744      C1745   1.409       .  A
C1744      H1749   1.084       .  S
C1745      C1746   1.419       .  A
C1746      C1747   1.511   1_565  S
C1747      H1751   1.111       .  S
C1747      H1752   1.110       .  S
C1747      H1753   1.109       .  S
C1750      H1754   1.110       .  S
C1750      H1755   1.108       .  S
C1750      H1756   1.111       .  S
C1757      C1758   1.403       .  A
C1757      C1762   1.407       .  A
C1757      H1764   1.084       .  S
C1758      C1759   1.409       .  A
C1759      C1760   1.400       .  A
C1759      C1766   1.507       .  S
C1760      C1761   1.401       .  A
C1760      H1765   1.083       .  S
C1761      C1762   1.415       .  A
C1762      C1763   1.505       .  S
C1763      H1767   1.110       .  S
C1763      H1768   1.108       .  S
C1763      H1769   1.110       .  S
C1766      H1770   1.110       .  S
C1766      H1771   1.110       .  S
C1766      H1772   1.111       .  S
C1773      C1774   1.404       .  A
C1773      C1778   1.397       .  A
C1773      H1780   1.076       .  S
C1774      C1775   1.420       .  A
C1775      C1776   1.413       .  A
C1775      C1782   1.505       .  S
C1776      C1777   1.405       .  A
C1776      H1781   1.084       .  S
C1777      C1778   1.415       .  A
C1778      C1779   1.514       .  S
C1779      H1783   1.110       .  S
C1779      H1784   1.111       .  S
C1779      H1785   1.106       .  S
C1782      H1786   1.108       .  S
C1782      H1787   1.107       .  S
C1782      H1788   1.111       .  S
C1789      C1790   1.403       .  A
C1789      C1794   1.398       .  A
C1789      H1796   1.080       .  S
C1790      C1791   1.408       .  A
C1791      C1792   1.412       .  A
C1791      C1798   1.502       .  S
C1792      C1793   1.409       .  A
C1792      H1797   1.084       .  S
C1793      C1794   1.411       .  A
C1794      C1795   1.509       .  S
C1795      H1799   1.111       .  S
C1795      H1800   1.110       .  S
C1795      H1801   1.109       .  S
C1798      H1802   1.111       .  S
C1798      H1803   1.106       .  S
C1798      H1804   1.111       .  S
C1805      C1806   1.404       .  A
C1805      C1810   1.396   1_556  A
C1805      H1812   1.083       .  S
C1806      C1807   1.411       .  A
C1807      C1808   1.411       .  A
C1807      C1814   1.504       .  S
C1808      C1809   1.409       .  A
C1808      H1813   1.084       .  S
C1809      C1810   1.417   1_556  A
C1810      C1811   1.513       .  S
C1811      H1815   1.111       .  S
C1811      H1816   1.111       .  S
C1811      H1817   1.109       .  S
C1814      H1818   1.110       .  S
C1814      H1819   1.109       .  S
C1814      H1820   1.111       .  S
C1821      C1822   1.401       .  A
C1821      C1826   1.406       .  A
C1821      H1828   1.084       .  S
C1822      C1823   1.415       .  A
C1823      C1824   1.405       .  A
C1823      C1830   1.506       .  S
C1824      C1825   1.401       .  A
C1824      H1829   1.082       .  S
C1825      C1826   1.418       .  A
C1826      C1827   1.507       .  S
C1827      H1831   1.110       .  S
C1827      H1832   1.110       .  S
C1827      H1833   1.108       .  S
C1830      H1834   1.107       .  S
C1830      H1835   1.110       .  S
C1830      H1836   1.111       .  S
C1837      C1838   1.404       .  A
C1837      C1842   1.401       .  A
C1837      H1844   1.080       .  S
C1838      C1839   1.425       .  A
C1839      C1840   1.409       .  A
C1839      C1846   1.507       .  S
C1840      C1841   1.404       .  A
C1840      H1845   1.084       .  S
C1841      C1842   1.420       .  A
C1842      C1843   1.498       .  S
C1843      H1847   1.111       .  S
C1843      H1848   1.094       .  S
C1843      H1849   1.110       .  S
C1846      H1850   1.110       .  S
C1846      H1851   1.108       .  S
C1846      H1852   1.111       .  S
C1853      C1854   1.403       .  A
C1853      C1858   1.402       .  A
C1853      H1860   1.084       .  S
C1854      C1855   1.415       .  A
C1855      C1856   1.404       .  A
C1855      C1862   1.504       .  S
C1856      C1857   1.403       .  A
C1856      H1861   1.085       .  S
C1857      C1858   1.411       .  A
C1858      C1859   1.506       .  S
C1859      H1863   1.111       .  S
C1859      H1864   1.110       .  S
C1859      H1865   1.109       .  S
C1862      H1866   1.110       .  S
C1862      H1867   1.106       .  S
C1862      H1868   1.110       .  S
C1869      C1870   1.410       .  A
C1869      C1874   1.407       .  A
C1869      H1876   1.084       .  S
C1870      C1871   1.412       .  A
C1871      C1872   1.392       .  A
C1871      C1878   1.512       .  S
C1872      C1873   1.401       .  A
C1872      H1877   1.073       .  S
C1873      C1874   1.407       .  A
C1874      C1875   1.503       .  S
C1875      H1879   1.111       .  S
C1875      H1880   1.110       .  S
C1875      H1881   1.106       .  S
C1878      H1882   1.111       .  S
C1878      H1883   1.107       .  S
C1878      H1884   1.111       .  S
C1885      C1886   1.398       .  A
C1885      C1890   1.398       .  A
C1885      H1892   1.085       .  S
C1886      C1887   1.412       .  A
C1887      C1888   1.402       .  A
C1887      C1894   1.504       .  S
C1888      C1889   1.402       .  A
C1888      H1893   1.083       .  S
C1889      C1890   1.418       .  A
C1890      C1891   1.509       .  S
C1891      H1895   1.110       .  S
C1891      H1896   1.107       .  S
C1891      H1897   1.110       .  S
C1894      H1898   1.110       .  S
C1894      H1899   1.105       .  S
C1894      H1900   1.111       .  S
C1901      C1902   1.406       .  A
C1901      C1906   1.400       .  A
C1901      H1908   1.082       .  S
C1902      C1903   1.410       .  A
C1903      C1904   1.404       .  A
C1903      C1910   1.502       .  S
C1904      C1905   1.405       .  A
C1904      H1909   1.084       .  S
C1905      C1906   1.410       .  A
C1906      C1907   1.507       .  S
C1907      H1911   1.111       .  S
C1907      H1912   1.110       .  S
C1907      H1913   1.108       .  S
C1910      H1914   1.111       .  S
C1910      H1915   1.106   1_655  S
C1910      H1916   1.111       .  S
C1917      C1918   1.402       .  A
C1917      C1922   1.400       .  A
C1917      H1924   1.085       .  S
C1918      C1919   1.416       .  A
C1919      C1920   1.403       .  A
C1919      C1926   1.508       .  S
C1920      C1921   1.399       .  A
C1920      H1925   1.084       .  S
C1921      C1922   1.411       .  A
C1922      C1923   1.508       .  S
C1923      H1927   1.111       .  S
C1923      H1928   1.110       .  S
C1923      H1929   1.109       .  S
C1926      H1930   1.110       .  S
C1926      H1931   1.109       .  S
C1926      H1932   1.111       .  S
C1933      C1934   1.408       .  A
C1933      C1938   1.405       .  A
C1933      H1940   1.084       .  S
C1934      C1935   1.425       .  A
C1935      C1936   1.398       .  A
C1935      C1942   1.513       .  S
C1936      C1937   1.396       .  A
C1936      H1941   1.085       .  S
C1937      C1938   1.407       .  A
C1938      C1939   1.505       .  S
C1939      H1943   1.111       .  S
C1939      H1944   1.111       .  S
C1939      H1945   1.110       .  S
C1942      H1946   1.108       .  S
C1942      H1947   1.107       .  S
C1942      H1948   1.111       .  S
C1949      C1950   1.402       .  A
C1949      C1954   1.392       .  A
C1949      H1956   1.083       .  S
C1950      C1951   1.418       .  A
C1951      C1952   1.402       .  A
C1951      C1958   1.507       .  S
C1952      C1953   1.398       .  A
C1952      H1957   1.084       .  S
C1953      C1954   1.409       .  A
C1954      C1955   1.509       .  S
C1955      H1959   1.111       .  S
C1955      H1960   1.110       .  S
C1955      H1961   1.110       .  S
C1958      H1962   1.110       .  S
C1958      H1963   1.110       .  S
C1958      H1964   1.111       .  S
C1965      C1966   1.401       .  A
C1965      C1970   1.401       .  A
C1965      H1972   1.082       .  S
C1966      C1967   1.417       .  A
C1967      C1968   1.408       .  A
C1967      C1974   1.499       .  S
C1968      C1969   1.400       .  A
C1968      H1973   1.084       .  S
C1969      C1970   1.418       .  A
C1970      C1971   1.509       .  S
C1971      H1975   1.110       .  S
C1971      H1976   1.108       .  S
C1971      H1977   1.111       .  S
C1974      H1978   1.107       .  S
C1974      H1979   1.106       .  S
C1974      H1980   1.111       .  S
C1981      C1982   1.389       .  A
C1981      C1986   1.390       .  A
C1981      H1988   1.087       .  S
C1982      C1983   1.406       .  A
C1983      C1984   1.405       .  A
C1983      C1990   1.504       .  S
C1984      C1985   1.409       .  A
C1984      H1989   1.084       .  S
C1985      C1986   1.426       .  A
C1986      C1987   1.501       .  S
C1987      H1991   1.111       .  S
C1987      H1992   1.109       .  S
C1987      H1993   1.085       .  S
C1990      H1994   1.110       .  S
C1990      H1995   1.110       .  S
C1990      H1996   1.111       .  S
C1997      C1998   1.409       .  A
C1997      C2002   1.406       .  A
C1997      H2004   1.084       .  S
C1998      C1999   1.420       .  A
C1999      C2000   1.394       .  A
C1999      C2006   1.509       .  S
C2000      C2001   1.402       .  A
C2000      H2005   1.084       .  S
C2001      C2002   1.413       .  A
C2002      C2003   1.507       .  S
C2003      H2007   1.111       .  S
C2003      H2008   1.107       .  S
C2003      H2009   1.110       .  S
C2006      H2010   1.108       .  S
C2006      H2011   1.110       .  S
C2006      H2012   1.111       .  S
C2013      C2014   1.410       .  A
C2013      C2018   1.391       .  A
C2013      H2020   1.084       .  S
C2014      C2015   1.416       .  A
C2015      C2016   1.405       .  A
C2015      C2022   1.505       .  S
C2016      C2017   1.404       .  A
C2016      H2021   1.084       .  S
C2017      C2018   1.407       .  A
C2018      C2019   1.508       .  S
C2019      H2023   1.111       .  S
C2019      H2024   1.107       .  S
C2019      H2025   1.110       .  S
C2022      H2026   1.109       .  S
C2022      H2027   1.110       .  S
C2022      H2028   1.111       .  S
C2029      C2030   1.406       .  A
C2029      C2034   1.403       .  A
C2029      H2036   1.082       .  S
C2030      C2031   1.412       .  A
C2031      C2032   1.414       .  A
C2031      C2038   1.504       .  S
C2032      C2033   1.410       .  A
C2032      H2037   1.084       .  S
C2033      C2034   1.411       .  A
C2034      C2035   1.507       .  S
C2035      H2039   1.111       .  S
C2035      H2040   1.110       .  S
C2035      H2041   1.108       .  S
C2038      H2042   1.110       .  S
C2038      H2043   1.110       .  S
C2038      H2044   1.111       .  S
C2045      C2046   1.403       .  A
C2045      C2050   1.409       .  A
C2045      H2052   1.084       .  S
C2046      C2047   1.406       .  A
C2047      C2048   1.396       .  A
C2047      C2054   1.508       .  S
C2048      C2049   1.410       .  A
C2048      H2053   1.084       .  S
C2049      C2050   1.416       .  A
C2050      C2051   1.500       .  S
C2051      H2055   1.111       .  S
C2051      H2056   1.107       .  S
C2051      H2057   1.110       .  S
C2054      H2058   1.109       .  S
C2054      H2059   1.107       .  S
C2054      H2060   1.111       .  S
C2061      C2062   1.400       .  A
C2061      C2066   1.405       .  A
C2061      H2068   1.084       .  S
C2062      C2063   1.407       .  A
C2063      C2064   1.393       .  A
C2063      C2070   1.507       .  S
C2064      C2065   1.404       .  A
C2064      H2069   1.084       .  S
C2065      C2066   1.417       .  A
C2066      C2067   1.507       .  S
C2067      H2071   1.111       .  S
C2067      H2072   1.110       .  S
C2067      H2073   1.110       .  S
C2070      H2074   1.107       .  S
C2070      H2075   1.110       .  S
C2070      H2076   1.111       .  S
C2077      C2078   1.404       .  A
C2077      C2082   1.404       .  A
C2077      H2084   1.084       .  S
C2078      C2079   1.419       .  A
C2079      C2080   1.409       .  A
C2079      C2086   1.503       .  S
C2080      C2081   1.403       .  A
C2080      H2085   1.084       .  S
C2081      C2082   1.414       .  A
C2082      C2083   1.508       .  S
C2083      H2087   1.111       .  S
C2083      H2088   1.110       .  S
C2083      H2089   1.108       .  S
C2086      H2090   1.105       .  S
C2086      H2091   1.110       .  S
C2086      H2092   1.110       .  S
C2093      C2094   1.405       .  A
C2093      C2098   1.405       .  A
C2093      H2100   1.083       .  S
C2094      C2095   1.417       .  A
C2095      C2096   1.402       .  A
C2095      C2102   1.506       .  S
C2096      C2097   1.399       .  A
C2096      H2101   1.085       .  S
C2097      C2098   1.411       .  A
C2098      C2099   1.505       .  S
C2099      H2103   1.111       .  S
C2099      H2104   1.110       .  S
C2099      H2105   1.110       .  S
C2102      H2106   1.108       .  S
C2102      H2107   1.110       .  S
C2102      H2108   1.109       .  S
C2109      C2110   1.404       .  A
C2109      C2114   1.408       .  A
C2109      H2116   1.084       .  S
C2110      C2111   1.408       .  A
C2111      C2112   1.402       .  A
C2111      C2118   1.506       .  S
C2112      C2113   1.406       .  A
C2112      H2117   1.084       .  S
C2113      C2114   1.415       .  A
C2114      C2115   1.503       .  S
C2115      H2119   1.110       .  S
C2115      H2120   1.104       .  S
C2115      H2121   1.102       .  S
C2118      H2122   1.110       .  S
C2118      H2123   1.110       .  S
C2118      H2124   1.111       .  S
C2125      C2126   1.403       .  A
C2125      C2130   1.408       .  A
C2125      H2132   1.084       .  S
C2126      C2127   1.411       .  A
C2127      C2128   1.402       .  A
C2127      C2134   1.507       .  S
C2128      C2129   1.404       .  A
C2128      H2133   1.084       .  S
C2129      C2130   1.415       .  A
C2130      C2131   1.503       .  S
C2131      H2135   1.111       .  S
C2131      H2136   1.102       .  S
C2131      H2137   1.104       .  S
C2134      H2138   1.110       .  S
C2134      H2139   1.109       .  S
C2134      H2140   1.111       .  S
C2141      C2142   1.407       .  A
C2141      C2146   1.408       .  A
C2141      H2148   1.084       .  S
C2142      C2143   1.412       .  A
C2143      C2144   1.399       .  A
C2143      C2150   1.501       .  S
C2144      C2145   1.400       .  A
C2144      H2149   1.085       .  S
C2145      C2146   1.410       .  A
C2146      C2147   1.505       .  S
C2147      H2151   1.111       .  S
C2147      H2152   1.110       .  S
C2147      H2153   1.110       .  S
C2150      H2154   1.111       .  S
C2150      H2155   1.107       .  S
C2150      H2156   1.111       .  S
C2157      C2158   1.402       .  A
C2157      C2162   1.398       .  A
C2157      H2164   1.085       .  S
C2158      C2159   1.413       .  A
C2159      C2160   1.410       .  A
C2159      C2166   1.505       .  S
C2160      C2161   1.406       .  A
C2160      H2165   1.084   1_556  S
C2161      C2162   1.414       .  A
C2162      C2163   1.505       .  S
C2163      H2167   1.111       .  S
C2163      H2168   1.109       .  S
C2163      H2169   1.108       .  S
C2166      H2170   1.110       .  S
C2166      H2171   1.109       .  S
C2166      H2172   1.111       .  S
C2173      C2174   1.413       .  A
C2173      C2178   1.410       .  A
C2173      H2180   1.084       .  S
C2174      C2175   1.416       .  A
C2175      C2176   1.398       .  A
C2175      C2182   1.512       .  S
C2176      C2177   1.411       .  A
C2176      H2181   1.084       .  S
C2177      C2178   1.412       .  A
C2178      C2179   1.504       .  S
C2179      H2183   1.111       .  S
C2179      H2184   1.110       .  S
C2179      H2185   1.106       .  S
C2182      H2186   1.110       .  S
C2182      H2187   1.108       .  S
C2182      H2188   1.111       .  S
C2189      C2190   1.407       .  A
C2189      C2194   1.404       .  A
C2189      H2196   1.084       .  S
C2190      C2191   1.411       .  A
C2191      C2192   1.394       .  A
C2191      C2198   1.511       .  S
C2192      C2193   1.411       .  A
C2192      H2197   1.083       .  S
C2193      C2194   1.415       .  A
C2194      C2195   1.507   1_556  S
C2195      H2199   1.111       .  S
C2195      H2200   1.111       .  S
C2195      H2201   1.110       .  S
C2198      H2202   1.110       .  S
C2198      H2203   1.108       .  S
C2198      H2204   1.111       .  S
C2205      C2206   1.404       .  A
C2205      C2210   1.406       .  A
C2205      H2212   1.084       .  S
C2206      C2207   1.408       .  A
C2207      C2208   1.398       .  A
C2207      C2214   1.510       .  S
C2208      C2209   1.412       .  A
C2208      H2213   1.083       .  S
C2209      C2210   1.419       .  A
C2210      C2211   1.506       .  S
C2211      H2215   1.111       .  S
C2211      H2216   1.108       .  S
C2211      H2217   1.110       .  S
C2214      H2218   1.109       .  S
C2214      H2219   1.110       .  S
C2214      H2220   1.111       .  S
C2221      C2222   1.393       .  A
C2221      C2226   1.400       .  A
C2221      H2228   1.085       .  S
C2222      C2223   1.416       .  A
C2223      C2224   1.416       .  A
C2223      C2230   1.505       .  S
C2224      C2225   1.409       .  A
C2224      H2229   1.083   1_556  S
C2225      C2226   1.434       .  A
C2226      C2227   1.513       .  S
C2227      H2231   1.111       .  S
C2227      H2232   1.108       .  S
C2227      H2233   1.110       .  S
C2230      H2234   1.109       .  S
C2230      H2235   1.110       .  S
C2230      H2236   1.111       .  S
C2237      C2238   1.403       .  A
C2237      C2242   1.407       .  A
C2237      H2244   1.084       .  S
C2238      C2239   1.409       .  A
C2239      C2240   1.399       .  A
C2239      C2246   1.507       .  S
C2240      C2241   1.402       .  A
C2240      H2245   1.082       .  S
C2241      C2242   1.415       .  A
C2242      C2243   1.505       .  S
C2243      H2247   1.110       .  S
C2243      H2248   1.110       .  S
C2243      H2249   1.108       .  S
C2246      H2250   1.110       .  S
C2246      H2251   1.110       .  S
C2246      H2252   1.111       .  S
C2253      C2254   1.403       .  A
C2253      C2258   1.394       .  A
C2253      H2260   1.082       .  S
C2254      C2255   1.421       .  A
C2255      C2256   1.401       .  A
C2255      C2262   1.507   1_556  S
C2256      C2257   1.397       .  A
C2256      H2261   1.084       .  S
C2257      C2258   1.409       .  A
C2258      C2259   1.508       .  S
C2259      H2263   1.111       .  S
C2259      H2264   1.110       .  S
C2259      H2265   1.110       .  S
C2262      H2266   1.110       .  S
C2262      H2267   1.110       .  S
C2262      H2268   1.111       .  S
C2269      C2270   1.411       .  A
C2269      C2274   1.395       .  A
C2269      H2276   1.084       .  S
C2270      C2271   1.418       .  A
C2271      C2272   1.409       .  A
C2271      C2278   1.507       .  S
C2272      C2273   1.402       .  A
C2272      H2277   1.084       .  S
C2273      C2274   1.406       .  A
C2274      C2275   1.510       .  S
C2275      H2279   1.111       .  S
C2275      H2280   1.109       .  S
C2275      H2281   1.110       .  S
C2278      H2282   1.110       .  S
C2278      H2283   1.109       .  S
C2278      H2284   1.111       .  S
C2285      C2286   1.407       .  A
C2285      C2290   1.406       .  A
C2285      H2292   1.083       .  S
C2286      C2287   1.416       .  A
C2287      C2288   1.407       .  A
C2287      C2294   1.498       .  S
C2288      C2289   1.401       .  A
C2288      H2293   1.084       .  S
C2289      C2290   1.414       .  A
C2290      C2291   1.508       .  S
C2291      H2295   1.111       .  S
C2291      H2296   1.111       .  S
C2291      H2297   1.108       .  S
C2294      H2298   1.109       .  S
C2294      H2299   1.103       .  S
C2294      H2300   1.111       .  S
C2301      C2302   1.402       .  A
C2301      C2306   1.409       .  A
C2301      H2308   1.084       .  S
C2302      C2303   1.413       .  A
C2303      C2304   1.396       .  A
C2303      C2310   1.512       .  S
C2304      C2305   1.404       .  A
C2304      H2309   1.080       .  S
C2305      C2306   1.419       .  A
C2306      C2307   1.501       .  S
C2307      H2311   1.111       .  S
C2307      H2312   1.101       .  S
C2307      H2313   1.108       .  S
C2310      H2314   1.107       .  S
C2310      H2315   1.110       .  S
C2310      H2316   1.110       .  S
C2317      C2318   1.410       .  A
C2317      C2322   1.409       .  A
C2317      H2324   1.084       .  S
C2318      C2319   1.417       .  A
C2319      C2320   1.393       .  A
C2319      C2326   1.507       .  S
C2320      C2321   1.402       .  A
C2320      H2325   1.085       .  S
C2321      C2322   1.409       .  A
C2322      C2323   1.505       .  S
C2323      H2327   1.111       .  S
C2323      H2328   1.110       .  S
C2323      H2329   1.109       .  S
C2326      H2330   1.110       .  S
C2326      H2331   1.106       .  S
C2326      H2332   1.111       .  S
C2333      C2334   1.401       .  A
C2333      C2338   1.390       .  A
C2333      H2340   1.081       .  S
C2334      C2335   1.411       .  A
C2335      C2336   1.405       .  A
C2335      C2342   1.495       .  S
C2336      C2337   1.400       .  A
C2336      H2341   1.084       .  S
C2337      C2338   1.409       .  A
C2338      C2339   1.508       .  S
C2339      H2343   1.109       .  S
C2339      H2344   1.110       .  S
C2339      H2345   1.108       .  S
C2342      H2346   1.108       .  S
C2342      H2347   1.110       .  S
C2342      H2348   1.111       .  S
C2349      C2350   1.407       .  A
C2349      C2354   1.408       .  A
C2349      H2356   1.084       .  S
C2350      C2351   1.418       .  A
C2351      C2352   1.409       .  A
C2351      C2358   1.502       .  S
C2352      C2353   1.404       .  A
C2352      H2357   1.084       .  S
C2353      C2354   1.411       .  A
C2354      C2355   1.505       .  S
C2355      H2359   1.111       .  S
C2355      H2360   1.110       .  S
C2355      H2361   1.110       .  S
C2358      H2362   1.110       .  S
C2358      H2363   1.104       .  S
C2358      H2364   1.110       .  S
C2365      C2366   1.403       .  A
C2365      C2370   1.407       .  A
C2365      H2372   1.084       .  S
C2366      C2367   1.420       .  A
C2367      C2368   1.401       .  A
C2367      C2374   1.510       .  S
C2368      C2369   1.398       .  A
C2368      H2373   1.085       .  S
C2369      C2370   1.412       .  A
C2370      C2371   1.505       .  S
C2371      H2375   1.111       .  S
C2371      H2376   1.110       .  S
C2371      H2377   1.110       .  S
C2374      H2378   1.110       .  S
C2374      H2379   1.108       .  S
C2374      H2380   1.110       .  S
C2381      C2382   1.408       .  A
C2381      C2386   1.405       .  A
C2381      H2388   1.083       .  S
C2382      C2383   1.420       .  A
C2383      C2384   1.404       .  A
C2383      C2390   1.506       .  S
C2384      C2385   1.404       .  A
C2384      H2389   1.085       .  S
C2385      C2386   1.411       .  A
C2386      C2387   1.505       .  S
C2387      H2391   1.111       .  S
C2387      H2392   1.109       .  S
C2387      H2393   1.110       .  S
C2390      H2394   1.108       .  S
C2390      H2395   1.110       .  S
C2390      H2396   1.110       .  S
C2397      C2398   1.406       .  A
C2397      C2402   1.397       .  A
C2397      H2404   1.078       .  S
C2398      C2399   1.432       .  A
C2399      C2400   1.404       .  A
C2399      C2406   1.504       .  S
C2400      C2401   1.397       .  A
C2400      H2405   1.085       .  S
C2401      C2402   1.423       .  A
C2402      C2403   1.510       .  S
C2403      H2407   1.100       .  S
C2403      H2408   1.110       .  S
C2403      H2409   1.111       .  S
C2406      H2410   1.104       .  S
C2406      H2411   1.111       .  S
C2406      H2412   1.111       .  S
C2413      C2414   1.395       .  A
C2413      C2418   1.401       .  A
C2413      H2420   1.085       .  S
C2414      C2415   1.410       .  A
C2415      C2416   1.401       .  A
C2415      C2422   1.504       .  S
C2416      C2417   1.405       .  A
C2416      H2421   1.083       .  S
C2417      C2418   1.431       .  A
C2418      C2419   1.513       .  S
C2419      H2423   1.111       .  S
C2419      H2424   1.107       .  S
C2419      H2425   1.109       .  S
C2422      H2426   1.102       .  S
C2422      H2427   1.110       .  S
C2422      H2428   1.111       .  S
C2429      C2430   1.408       .  A
C2429      C2434   1.400       .  A
C2429      H2436   1.084       .  S
C2430      C2431   1.424       .  A
C2431      C2432   1.415       .  A
C2431      C2438   1.506       .  S
C2432      C2433   1.413       .  A
C2432      H2437   1.081       .  S
C2433      C2434   1.418       .  A
C2434      C2435   1.512       .  S
C2435      H2439   1.113       .  S
C2435      H2440   1.107       .  S
C2435      H2441   1.102       .  S
C2438      H2442   1.110       .  S
C2438      H2443   1.108       .  S
C2438      H2444   1.111       .  S
C2445      C2446   1.403       .  A
C2445      C2450   1.404       .  A
C2445      H2452   1.084       .  S
C2446      C2447   1.408       .  A
C2447      C2448   1.397       .  A
C2447      C2454   1.509       .  S
C2448      C2449   1.411       .  A
C2448      H2453   1.084   1_556  S
C2449      C2450   1.419       .  A
C2450      C2451   1.506       .  S
C2451      H2455   1.111       .  S
C2451      H2456   1.110       .  S
C2451      H2457   1.109       .  S
C2454      H2458   1.110       .  S
C2454      H2459   1.109       .  S
C2454      H2460   1.111       .  S
C2461      C2462   1.393       .  A
C2461      C2466   1.395       .  A
C2461      H2468   1.085       .  S
C2462      C2463   1.410       .  A
C2463      C2464   1.406       .  A
C2463      C2470   1.505       .  S
C2464      C2465   1.407       .  A
C2464      H2469   1.083       .  S
C2465      C2466   1.430       .  A
C2466      C2467   1.514   1_556  S
C2467      H2471   1.111       .  S
C2467      H2472   1.110       .  S
C2467      H2473   1.110       .  S
C2470      H2474   1.110       .  S
C2470      H2475   1.110       .  S
C2470      H2476   1.111       .  S
C2477      C2478   1.405       .  A
C2477      C2482   1.408       .  A
C2477      H2484   1.084       .  S
C2478      C2479   1.409       .  A
C2479      C2480   1.401       .  A
C2479      C2486   1.507       .  S
C2480      C2481   1.404       .  A
C2480      H2485   1.082       .  S
C2481      C2482   1.415       .  A
C2482      C2483   1.505       .  S
C2483      H2487   1.110       .  S
C2483      H2488   1.110       .  S
C2483      H2489   1.108       .  S
C2486      H2490   1.110       .  S
C2486      H2491   1.110       .  S
C2486      H2492   1.111       .  S
C2493      C2494   1.408       .  A
C2493      C2498   1.397       .  A
C2493      H2500   1.084       .  S
C2494      C2495   1.416       .  A
C2495      C2496   1.408       .  A
C2495      C2502   1.498       .  S
C2496      C2497   1.401       .  A
C2496      H2501   1.084       .  S
C2497      C2498   1.408       .  A
C2498      C2499   1.506       .  S
C2499      H2503   1.111       .  S
C2499      H2504   1.110       .  S
C2499      H2505   1.106       .  S
C2502      H2506   1.107       .  S
C2502      H2507   1.110       .  S
C2502      H2508   1.111       .  S
C2509      C2510   1.402       .  A
C2509      C2514   1.397       .  A
C2509      H2516   1.080       .  S
C2510      C2511   1.410       .  A
C2511      C2512   1.403       .  A
C2511      C2518   1.500       .  S
C2512      C2513   1.403       .  A
C2512      H2517   1.084       .  S
C2513      C2514   1.411       .  A
C2514      C2515   1.509       .  S
C2515      H2519   1.111       .  S
C2515      H2520   1.110       .  S
C2515      H2521   1.109       .  S
C2518      H2522   1.111       .  S
C2518      H2523   1.106       .  S
C2518      H2524   1.111       .  S
C2525      C2526   1.397       .  A
C2525      C2530   1.404       .  A
C2525      H2532   1.084       .  S
C2526      C2527   1.411       .  A
C2527      C2528   1.401       .  A
C2527      C2534   1.508       .  S
C2528      C2529   1.404       .  A
C2528      H2533   1.084       .  S
C2529      C2530   1.419       .  A
C2530      C2531   1.506       .  S
C2531      H2535   1.111       .  S
C2531      H2536   1.110       .  S
C2531      H2537   1.109       .  S
C2534      H2538   1.110       .  S
C2534      H2539   1.110       .  S
C2534      H2540   1.111       .  S
C2541      C2542   1.403       .  A
C2541      C2546   1.409       .  A
C2541      H2548   1.084       .  S
C2542      C2543   1.414       .  A
C2543      C2544   1.407       .  A
C2543      C2550   1.507       .  S
C2544      C2545   1.406       .  A
C2544      H2549   1.077       .  S
C2545      C2546   1.417       .  A
C2546      C2547   1.506       .  S
C2547      H2551   1.111       .  S
C2547      H2552   1.108       .  S
C2547      H2553   1.111       .  S
C2550      H2554   1.110       .  S
C2550      H2555   1.109       .  S
C2550      H2556   1.111       .  S
C2557      C2558   1.397       .  A
C2557      C2562   1.400       .  A
C2557      H2564   1.085       .  S
C2558      C2559   1.417       .  A
C2559      C2560   1.408       .  A
C2559      C2566   1.506       .  S
C2560      C2561   1.407       .  A
C2560      H2565   1.084       .  S
C2561      C2562   1.430       .  A
C2562      C2563   1.511       .  S
C2563      H2567   1.111       .  S
C2563      H2568   1.108       .  S
C2563      H2569   1.108       .  S
C2566      H2570   1.110       .  S
C2566      H2571   1.108       .  S
C2566      H2572   1.110       .  S
C2573      C2574   1.405       .  A
C2573      C2578   1.411       .  A
C2573      H2580   1.084       .  S
C2574      C2575   1.417       .  A
C2575      C2576   1.393       .  A
C2575      C2582   1.512       .  S
C2576      C2577   1.401       .  A
C2576      H2581   1.082       .  S
C2577      C2578   1.418       .  A
C2578      C2579   1.506       .  S
C2579      H2583   1.111       .  S
C2579      H2584   1.110   1_565  S
C2579      H2585   1.109       .  S
C2582      H2586   1.110       .  S
C2582      H2587   1.107       .  S
C2582      H2588   1.111       .  S
C2589      C2590   1.398       .  A
C2589      C2594   1.400       .  A
C2589      H2596   1.085       .  S
C2590      C2591   1.412       .  A
C2591      C2592   1.405       .  A
C2591      C2598   1.505       .  S
C2592      C2593   1.404       .  A
C2592      H2597   1.083       .  S
C2593      C2594   1.417       .  A
C2594      C2595   1.507       .  S
C2595      H2599   1.110       .  S
C2595      H2600   1.108       .  S
C2595      H2601   1.109       .  S
C2598      H2602   1.110       .  S
C2598      H2603   1.110       .  S
C2598      H2604   1.111       .  S
C2605      C2606   1.398       .  A
C2605      C2610   1.400       .  A
C2605      H2612   1.085       .  S
C2606      C2607   1.405       .  A
C2607      C2608   1.404       .  A
C2607      C2614   1.505       .  S
C2608      C2609   1.412       .  A
C2608      H2613   1.083       .  S
C2609      C2610   1.423       .  A
C2610      C2611   1.508       .  S
C2611      H2615   1.111       .  S
C2611      H2616   1.108       .  S
C2611      H2617   1.110       .  S
C2614      H2618   1.110       .  S
C2614      H2619   1.111       .  S
C2614      H2620   1.111       .  S
C2621      C2622   1.400       .  A
C2621      C2626   1.394       .  A
C2621      H2628   1.085       .  S
C2622      C2623   1.413       .  A
C2623      C2624   1.410       .  A
C2623      C2630   1.505       .  S
C2624      C2625   1.407       .  A
C2624      H2629   1.084       .  S
C2625      C2626   1.421       .  A
C2626      C2627   1.509       .  S
C2627      H2631   1.111       .  S
C2627      H2632   1.109       .  S
C2627      H2633   1.108       .  S
C2630      H2634   1.110       .  S
C2630      H2635   1.108       .  S
C2630      H2636   1.111       .  S
C2637      C2638   1.405       .  A
C2637      C2642   1.410       .  A
C2637      H2644   1.084       .  S
C2638      C2639   1.414       .  A
C2639      C2640   1.405       .  A
C2639      C2646   1.507       .  S
C2640      C2641   1.404       .  A
C2640      H2645   1.084       .  S
C2641      C2642   1.409       .  A
C2642      C2643   1.496       .  S
C2643      H2647   1.111       .  S
C2643      H2648   1.104   1_655  S
C2643      H2649   1.110   1_655  S
C2646      H2650   1.110       .  S
C2646      H2651   1.110       .  S
C2646      H2652   1.111       .  S
C2653      C2654   1.405       .  A
C2653      C2658   1.401       .  A
C2653      H2660   1.083       .  S
C2654      C2655   1.421       .  A
C2655      C2656   1.413       .  A
C2655      C2662   1.508       .  S
C2656      C2657   1.409       .  A
C2656      H2661   1.084   1_556  S
C2657      C2658   1.422       .  A
C2658      C2659   1.507       .  S
C2659      H2663   1.111       .  S
C2659      H2664   1.101       .  S
C2659      H2665   1.110       .  S
C2662      H2666   1.106       .  S
C2662      H2667   1.110       .  S
C2662      H2668   1.111       .  S
C2669      C2670   1.405       .  A
C2669      C2674   1.403       .  A
C2669      H2676   1.085       .  S
C2670      C2671   1.407       .  A
C2671      C2672   1.395       .  A
C2671      C2678   1.507       .  S
C2672      C2673   1.404       .  A
C2672      H2677   1.081       .  S
C2673      C2674   1.412       .  A
C2674      C2675   1.505       .  S
C2675      H2679   1.110       .  S
C2675      H2680   1.110       .  S
C2675      H2681   1.109       .  S
C2678      H2682   1.110       .  S
C2678      H2683   1.109       .  S
C2678      H2684   1.111       .  S
C2685      C2686   1.405       .  A
C2685      C2690   1.405       .  A
C2685      H2692   1.084       .  S
C2686      C2687   1.412       .  A
C2687      C2688   1.388       .  A
C2687      C2694   1.512       .  S
C2688      C2689   1.403       .  A
C2688      H2693   1.084       .  S
C2689      C2690   1.410       .  A
C2690      C2691   1.505       .  S
C2691      H2695   1.111       .  S
C2691      H2696   1.110       .  S
C2691      H2697   1.110       .  S
C2694      H2698   1.110       .  S
C2694      H2699   1.108       .  S
C2694      H2700   1.111       .  S
C2701      C2702   1.407       .  A
C2701      C2706   1.406       .  A
C2701      H2708   1.084       .  S
C2702      C2703   1.411       .  A
C2703      C2704   1.394       .  A
C2703      C2710   1.511       .  S
C2704      C2705   1.406       .  A
C2704      H2709   1.083       .  S
C2705      C2706   1.409       .  A
C2706      C2707   1.502   1_556  S
C2707      H2711   1.111       .  S
C2707      H2712   1.108       .  S
C2707      H2713   1.111       .  S
C2710      H2714   1.109       .  S
C2710      H2715   1.110       .  S
C2710      H2716   1.111       .  S
C2717      C2718   1.408       .  A
C2717      C2722   1.406       .  A
C2717      H2724   1.084       .  S
C2718      C2719   1.412       .  A
C2719      C2720   1.396       .  A
C2719      C2726   1.509       .  S
C2720      C2721   1.404       .  A
C2720      H2725   1.085       .  S
C2721      C2722   1.408       .  A
C2722      C2723   1.504       .  S
C2723      H2727   1.111       .  S
C2723      H2728   1.109       .  S
C2723      H2729   1.111       .  S
C2726      H2730   1.109       .  S
C2726      H2731   1.110       .  S
C2726      H2732   1.111       .  S
C2733      C2734   1.406       .  A
C2733      C2738   1.406       .  A
C2733      H2740   1.084       .  S
C2734      C2735   1.410       .  A
C2735      C2736   1.397       .  A
C2735      C2742   1.511       .  S
C2736      C2737   1.412       .  A
C2736      H2741   1.083       .  S
C2737      C2738   1.417       .  A
C2738      C2739   1.507       .  S
C2739      H2743   1.111       .  S
C2739      H2744   1.111       .  S
C2739      H2745   1.109       .  S
C2742      H2746   1.110       .  S
C2742      H2747   1.108       .  S
C2742      H2748   1.111       .  S
C2749      C2750   1.404       .  A
C2749      C2754   1.413       .  A
C2749      H2756   1.084       .  S
C2750      C2751   1.410       .  A
C2751      C2752   1.403       .  A
C2751      C2758   1.507       .  S
C2752      C2753   1.403       .  A
C2752      H2757   1.082       .  S
C2753      C2754   1.418       .  A
C2754      C2755   1.505       .  S
C2755      H2759   1.110       .  S
C2755      H2760   1.102       .  S
C2755      H2761   1.104       .  S
C2758      H2762   1.110       .  S
C2758      H2763   1.110       .  S
C2758      H2764   1.111       .  S
C2765      C2766   1.408       .  A
C2765      C2770   1.398       .  A
C2765      H2772   1.083       .  S
C2766      C2767   1.418       .  A
C2767      C2768   1.409       .  A
C2767      C2774   1.508       .  S
C2768      C2769   1.410       .  A
C2768      H2773   1.084       .  S
C2769      C2770   1.417       .  A
C2770      C2771   1.508       .  S
C2771      H2775   1.111       .  S
C2771      H2776   1.101       .  S
C2771      H2777   1.110       .  S
C2774      H2778   1.106       .  S
C2774      H2779   1.110       .  S
C2774      H2780   1.111       .  S
C2781      C2782   1.402       .  A
C2781      C2786   1.410       .  A
C2781      H2788   1.084       .  S
C2782      C2783   1.410       .  A
C2783      C2784   1.399       .  A
C2783      C2790   1.509       .  S
C2784      C2785   1.406       .  A
C2784      H2789   1.085       .  S
C2785      C2786   1.418       .  A
C2786      C2787   1.504       .  S
C2787      H2791   1.111       .  S
C2787      H2792   1.108       .  S
C2787      H2793   1.110   1_655  S
C2790      H2794   1.110       .  S
C2790      H2795   1.110       .  S
C2790      H2796   1.111       .  S
C2797      C2798   1.411       .  A
C2797      C2802   1.416       .  A
C2797      H2804   1.084       .  S
C2798      C2799   1.420       .  A
C2799      C2800   1.397       .  A
C2799      C2806   1.496   1_565  S
C2800      C2801   1.398       .  A
C2800      H2805   1.085       .  S
C2801      C2802   1.416       .  A
C2802      C2803   1.505       .  S
C2803      H2807   1.111       .  S
C2803      H2808   1.110       .  S
C2803      H2809   1.107       .  S
C2806      H2810   1.108       .  S
C2806      H2811   1.104       .  S
C2806      H2812   1.111       .  S
C2813      C2814   1.397       .  A
C2813      C2818   1.401       .  A
C2813      H2820   1.085       .  S
C2814      C2815   1.417       .  A
C2815      C2816   1.415       .  A
C2815      C2822   1.505       .  S
C2816      C2817   1.406       .  A
C2816      H2821   1.083       .  S
C2817      C2818   1.428       .  A
C2818      C2819   1.512       .  S
C2819      H2823   1.111       .  S
C2819      H2824   1.108       .  S
C2819      H2825   1.110   1_565  S
C2822      H2826   1.110       .  S
C2822      H2827   1.108       .  S
C2822      H2828   1.111       .  S
C2829      C2830   1.408       .  A
C2829      C2834   1.406       .  A
C2829      H2836   1.084       .  S
C2830      C2831   1.419       .  A
C2831      C2832   1.410       .  A
C2831      C2838   1.502       .  S
C2832      C2833   1.405       .  A
C2832      H2837   1.084       .  S
C2833      C2834   1.412       .  A
C2834      C2835   1.507       .  S
C2835      H2839   1.111       .  S
C2835      H2840   1.109       .  S
C2835      H2841   1.110       .  S
C2838      H2842   1.105       .  S
C2838      H2843   1.110       .  S
C2838      H2844   1.110       .  S
C2845      C2846   1.395       .  A
C2845      C2850   1.394       .  A
C2845      H2852   1.085       .  S
C2846      C2847   1.414       .  A
C2847      C2848   1.411       .  A
C2847      C2854   1.505       .  S
C2848      C2849   1.405       .  A
C2848      H2853   1.084       .  S
C2849      C2850   1.423       .  A
C2850      C2851   1.510       .  S
C2851      H2855   1.111       .  S
C2851      H2856   1.105       .  S
C2851      H2857   1.109       .  S
C2854      H2858   1.110       .  S
C2854      H2859   1.108       .  S
C2854      H2860   1.111       .  S
C2861      C2862   1.416       .  A
C2861      C2866   1.403       .  A
C2861      H2868   1.083       .  S
C2862      C2863   1.421       .  A
C2863      C2864   1.410       .  A
C2863      C2870   1.507       .  S
C2864      C2865   1.404       .  A
C2864      H2869   1.084       .  S
C2865      C2866   1.402       .  A
C2866      C2867   1.504   1_655  S
C2867      H2871   1.111       .  S
C2867      H2872   1.110       .  S
C2867      H2873   1.100       .  S
C2870      H2874   1.110       .  S
C2870      H2875   1.107       .  S
C2870      H2876   1.111       .  S
C2877      C2878   1.406       .  A
C2877      C2882   1.414       .  A
C2877      H2884   1.084       .  S
C2878      C2879   1.410       .  A
C2879      C2880   1.404       .  A
C2879      C2886   1.506       .  S
C2880      C2881   1.404       .  A
C2880      H2885   1.083       .  S
C2881      C2882   1.416       .  A
C2882      C2883   1.504       .  S
C2883      H2887   1.110       .  S
C2883      H2888   1.106       .  S
C2883      H2889   1.107       .  S
C2886      H2890   1.110       .  S
C2886      H2891   1.110       .  S
C2886      H2892   1.111       .  S
C2893      C2894   1.400       .  A
C2893      C2898   1.395       .  A
C2893      H2900   1.085       .  S
C2894      C2895   1.411       .  A
C2895      C2896   1.409       .  A
C2895      C2902   1.505       .  S
C2896      C2897   1.408       .  A
C2896      H2901   1.084       .  S
C2897      C2898   1.417       .  A
C2898      C2899   1.505   1_556  S
C2899      H2903   1.110       .  S
C2899      H2904   1.110       .  S
C2899      H2905   1.108       .  S
C2902      H2906   1.110       .  S
C2902      H2907   1.109       .  S
C2902      H2908   1.111       .  S
C2909      C2910   1.406       .  A
C2909      C2914   1.404       .  A
C2909      H2916   1.084       .  S
C2910      C2911   1.427       .  A
C2911      C2912   1.396       .  A
C2911      C2918   1.511       .  S
C2912      C2913   1.398       .  A
C2912      H2917   1.084       .  S
C2913      C2914   1.417       .  A
C2914      C2915   1.507       .  S
C2915      H2919   1.110       .  S
C2915      H2920   1.108       .  S
C2915      H2921   1.111       .  S
C2918      H2922   1.106       .  S
C2918      H2923   1.109   1_556  S
C2918      H2924   1.111       .  S
C2925      C2926   1.402       .  A
C2925      C2930   1.404       .  A
C2925      H2932   1.085       .  S
C2926      C2927   1.409       .  A
C2927      C2928   1.403       .  A
C2927      C2934   1.505       .  S
C2928      C2929   1.404       .  A
C2928      H2933   1.084       .  S
C2929      C2930   1.415       .  A
C2930      C2931   1.503       .  S
C2931      H2935   1.110       .  S
C2931      H2936   1.110       .  S
C2931      H2937   1.105       .  S
C2934      H2938   1.110       .  S
C2934      H2939   1.110       .  S
C2934      H2940   1.111       .  S
C2941      C2942   1.406       .  A
C2941      C2946   1.404       .  A
C2941      H2948   1.084       .  S
C2942      C2943   1.415       .  A
C2943      C2944   1.404       .  A
C2943      C2950   1.501       .  S
C2944      C2945   1.402       .  A
C2944      H2949   1.085       .  S
C2945      C2946   1.409       .  A
C2946      C2947   1.505       .  S
C2947      H2951   1.111       .  S
C2947      H2952   1.110       .  S
C2947      H2953   1.110       .  S
C2950      H2954   1.101       .  S
C2950      H2955   1.110       .  S
C2950      H2956   1.111       .  S
C2957      C2958   1.408       .  A
C2957      C2962   1.408       .  A
C2957      H2964   1.078       .  S
C2958      C2959   1.419       .  A
C2959      C2960   1.407       .  A
C2959      C2966   1.507       .  S
C2960      C2961   1.403       .  A
C2960      H2965   1.084       .  S
C2961      C2962   1.413       .  A
C2962      C2963   1.507       .  S
C2963      H2967   1.111       .  S
C2963      H2968   1.108       .  S
C2963      H2969   1.110       .  S
C2966      H2970   1.107       .  S
C2966      H2971   1.110       .  S
C2966      H2972   1.110       .  S
C2973      C2974   1.409       .  A
C2973      C2978   1.408       .  A
C2973      H2980   1.083       .  S
C2974      C2975   1.421       .  A
C2975      C2976   1.408       .  A
C2975      C2982   1.503       .  S
C2976      C2977   1.403       .  A
C2976      H2981   1.085       .  S
C2977      C2978   1.410       .  A
C2978      C2979   1.505       .  S
C2979      H2983   1.111       .  S
C2979      H2984   1.110       .  S
C2979      H2985   1.110       .  S
C2982      H2986   1.104       .  S
C2982      H2987   1.110       .  S
C2982      H2988   1.110       .  S
C2989      C2990   1.408       .  A
C2989      C2994   1.408       .  A
C2989      H2996   1.084       .  S
C2990      C2991   1.410       .  A
C2991      C2992   1.391       .  A
C2991      C2998   1.511       .  S
C2992      C2993   1.406       .  A
C2992      H2997   1.085       .  S
C2993      C2994   1.410       .  A
C2994      C2995   1.504       .  S
C2995      H2999   1.111       .  S
C2995      H3000   1.109       .  S
C2995      H3001   1.110       .  S
C2998      H3002   1.108       .  S
C2998      H3003   1.110       .  S
C2998      H3004   1.111       .  S
C3005      C3006   1.402       .  A
C3005      C3010   1.409       .  A
C3005      H3012   1.084       .  S
C3006      C3007   1.407       .  A
C3007      C3008   1.397       .  A
C3007      C3014   1.509       .  S
C3008      C3009   1.408       .  A
C3008      H3013   1.082       .  S
C3009      C3010   1.419       .  A
C3010      C3011   1.506       .  S
C3011      H3015   1.111       .  S
C3011      H3016   1.110       .  S
C3011      H3017   1.111       .  S
C3014      H3018   1.110       .  S
C3014      H3019   1.110       .  S
C3014      H3020   1.111       .  S
C3021      C3022   1.406       .  A
C3021      C3026   1.409       .  A
C3021      H3028   1.084       .  S
C3022      C3023   1.410       .  A
C3023      C3024   1.400       .  A
C3023      C3030   1.508       .  S
C3024      C3025   1.404       .  A
C3024      H3029   1.082       .  S
C3025      C3026   1.415       .  A
C3026      C3027   1.505       .  S
C3027      H3031   1.110       .  S
C3027      H3032   1.108       .  S
C3027      H3033   1.110       .  S
C3030      H3034   1.109       .  S
C3030      H3035   1.110       .  S
C3030      H3036   1.111       .  S
C3037      C3038   1.404       .  A
C3037      C3042   1.395       .  A
C3037      H3044   1.084       .  S
C3038      C3039   1.413       .  A
C3039      C3040   1.409       .  A
C3039      C3046   1.506       .  S
C3040      C3041   1.409       .  A
C3040      H3045   1.084       .  S
C3041      C3042   1.418       .  A
C3042      C3043   1.510   1_655  S
C3043      H3047   1.111       .  S
C3043      H3048   1.110       .  S
C3043      H3049   1.107       .  S
C3046      H3050   1.110       .  S
C3046      H3051   1.108       .  S
C3046      H3052   1.111       .  S
C3053      C3054   1.399       .  A
C3053      C3058   1.404       .  A
C3053      H3060   1.084       .  S
C3054      C3055   1.410       .  A
C3055      C3056   1.397       .  A
C3055      C3062   1.508       .  S
C3056      C3057   1.403       .  A
C3056      H3061   1.084       .  S
C3057      C3058   1.418       .  A
C3058      C3059   1.506       .  S
C3059      H3063   1.111       .  S
C3059      H3064   1.109       .  S
C3059      H3065   1.110       .  S
C3062      H3066   1.110       .  S
C3062      H3067   1.110       .  S
C3062      H3068   1.111       .  S
C3069      C3070   1.399       .  A
C3069      C3074   1.403       .  A
C3069      H3076   1.084       .  S
C3070      C3071   1.414       .  A
C3071      C3072   1.407       .  A
C3071      C3078   1.506       .  S
C3072      C3073   1.405       .  A
C3072      H3077   1.083       .  S
C3073      C3074   1.419       .  A
C3074      C3075   1.509       .  S
C3075      H3079   1.111       .  S
C3075      H3080   1.104       .  S
C3075      H3081   1.098       .  S
C3078      H3082   1.109       .  S
C3078      H3083   1.110       .  S
C3078      H3084   1.111       .  S
C3085      C3086   1.398       .  A
C3085      C3090   1.404       .  A
C3085      H3092   1.084       .  S
C3086      C3087   1.411       .  A
C3087      C3088   1.398   1_556  A
C3087      C3094   1.508   1_556  S
C3088      C3089   1.403       .  A
C3088      H3093   1.085       .  S
C3089      C3090   1.418   1_554  A
C3090      C3091   1.507       .  S
C3091      H3095   1.111       .  S
C3091      H3096   1.110       .  S
C3091      H3097   1.109       .  S
C3094      H3098   1.110   1_554  S
C3094      H3099   1.109       .  S
C3094      H3100   1.111       .  S
C3101      C3102   1.400       .  A
C3101      C3106   1.389       .  A
C3101      H3108   1.084       .  S
C3102      C3103   1.415       .  A
C3103      C3104   1.409       .  A
C3103      C3110   1.507       .  S
C3104      C3105   1.408       .  A
C3104      H3109   1.084       .  S
C3105      C3106   1.416       .  A
C3106      C3107   1.504   1_556  S
C3107      H3111   1.111       .  S
C3107      H3112   1.108       .  S
C3107      H3113   1.110       .  S
C3110      H3114   1.107       .  S
C3110      H3115   1.110       .  S
C3110      H3116   1.111       .  S
C3117      C3118   1.396       .  A
C3117      C3122   1.396       .  A
C3117      H3124   1.085       .  S
C3118      C3119   1.410       .  A
C3119      C3120   1.405       .  A
C3119      C3126   1.504       .  S
C3120      C3121   1.404       .  A
C3120      H3125   1.084       .  S
C3121      C3122   1.414       .  A
C3122      C3123   1.507       .  S
C3123      H3127   1.111       .  S
C3123      H3128   1.108       .  S
C3123      H3129   1.099       .  S
C3126      H3130   1.110       .  S
C3126      H3131   1.110       .  S
C3126      H3132   1.111       .  S
