geometry optimzed in LAMMPS
_audit_creation_date              2020-11-30 
_audit_creation_method            'lammps2cif' 
_symmetry_space_group_name_H-M    'P1' 
_symmetry_Int_Tables_number       1 
_symmetry_cell_setting            triclinic 
loop_ 
_symmetry_equiv_pos_as_xyz 
  x,y,z 
_cell_length_a                    23.716637010567414 
_cell_length_b                    24.13420851423817 
_cell_length_c                    23.941903790554225 
_cell_angle_alpha                 90.74011867187038 
_cell_angle_beta                  90.1397967289895 
_cell_angle_gamma                 88.60943287423848 
loop_ 
_atom_site_label 
_atom_site_type_symbol 
_atom_site_fract_x 
_atom_site_fract_y 
_atom_site_fract_z 
_atom_site_charge 
O1          O  0.19774556  0.57755374  0.01444335    -0.71870
O2          O  0.19202007  0.42533818  0.99603630    -0.72850
O3          O  0.21403549  0.49316519  0.09439926    -0.61470
O4          O  0.20592512  0.51023130  0.91744987    -0.69880
O5          O  0.29538879  0.48398518  0.92475836    -0.69430
O6          O  0.30390019  0.50299396  0.07728167    -0.60680
O7          O  0.28283292  0.40818539  0.00877491    -0.73190
O8          O  0.28693207  0.58073499  0.98893149    -0.71970
Cu9        Cu  0.19836765  0.50146873  0.00597774     1.04560
Cu10       Cu  0.29603193  0.49380660  0.00026139     1.04330
C11         C  0.23783341  0.60462339  0.99650792     0.94330
C12         C  0.23164664  0.39126319  0.00317828     0.93470
C13         C  0.26563770  0.49782113  0.11226476     0.85610
C14         C  0.25478341  0.49901594  0.89512875     0.91890
C15         C  0.33770779  0.50696535  0.67105833    -0.01410
O16         O  0.69531286  0.49651258  0.07204655    -0.71870
O17         O  0.71809646  0.49477236  0.91536732    -0.72850
O18         O  0.71618295  0.40890790  0.99530811    -0.61470
O19         O  0.72893922  0.58328569  0.99751655    -0.69880
O20         O  0.81760142  0.56693353  0.01906510    -0.69430
O21         O  0.80870764  0.41603365  0.99862497    -0.60680
O22         O  0.81081495  0.49899652  0.91828093    -0.73190
O23         O  0.78401997  0.48352518  0.09619086    -0.71970
Cu24       Cu  0.71084887  0.49643943  0.99459712     1.04560
Cu25       Cu  0.80865002  0.49107253  0.00866652     1.04330
C26         C  0.73093238  0.48883713  0.10995428     0.94330
C27         C  0.76389798  0.49751163  0.88981658     0.93470
C28         C  0.76637750  0.38671401  0.99780027     0.85610
C29         C  0.77931372  0.60130743  0.00850288     0.91890
C30         C  0.67064844  0.51068869  0.65756064    -0.01410
O31         O  0.08209087  0.51998546  0.79335831    -0.71870
O32         O  0.90606740  0.49945538  0.78278128    -0.72850
O33         O  0.00351727  0.43273844  0.81400833    -0.61470
O34         O  0.98376700  0.58854405  0.78998482    -0.69880
O35         O  0.01668071  0.57997413  0.70419145    -0.69430
O36         O  0.99222371  0.40812936  0.72563822    -0.60680
O37         O  0.92716898  0.50483382  0.69348747    -0.73190
O38         O  0.07938532  0.47746515  0.71149409    -0.71970
Cu39       Cu  0.99328049  0.51033254  0.79946661     1.04560
Cu40       Cu  0.00357411  0.49212672  0.70508825     1.04330
C41         C  0.10647919  0.50302536  0.74762528     0.94330
C42         C  0.89095331  0.49973319  0.73070640     0.93470
C43         C  0.99772397  0.39512567  0.77773609     0.85610
C44         C  0.00495048  0.61040142  0.74787276     0.91890
O45         O  0.98305792  0.58734357  0.28608514    -0.71870
O46         O  0.98575055  0.41246040  0.27117254    -0.72850
O47         O  0.06288358  0.49724085  0.30075658    -0.61470
O48         O  0.90517786  0.50217257  0.28724327    -0.69880
O49         O  0.90025199  0.49141012  0.19571131    -0.69430
O50         O  0.07989812  0.50861043  0.21161840    -0.60680
O51         O  0.00388718  0.42479286  0.18290163    -0.73190
O52         O  0.97443708  0.57549888  0.19538148    -0.71970
Cu53       Cu  0.98402382  0.49937794  0.29013278     1.04560
Cu54       Cu  0.99012543  0.50049431  0.19299733     1.04330
C55         C  0.97715985  0.60735934  0.23643734     0.94330
C56         C  0.99525799  0.39199007  0.22125740     0.93470
C57         C  0.09825224  0.50213152  0.26265269     0.85610
C58         C  0.87591729  0.49678066  0.24413369     0.91890
C59         C  0.64895680  0.49690207  0.34121609    -0.01410
C60         C  0.33453769  0.49940824  0.34704526    -0.01410
O61         O  0.51658799  0.76360789  0.91333476    -0.71870
O62         O  0.50388194  0.79927347  0.08862077    -0.72850
O63         O  0.58579302  0.80047854  0.00471643    -0.61470
O64         O  0.43201002  0.80001264  0.99015642    -0.69880
O65         O  0.42138536  0.71507379  0.02035782    -0.69430
O66         O  0.60149049  0.71037250  0.00708015    -0.60680
O67         O  0.52036479  0.70908219  0.09155357    -0.73190
O68         O  0.50465333  0.67759893  0.93950155    -0.71970
Cu69       Cu  0.50951787  0.79443958  0.99836215     1.04560
Cu70       Cu  0.51196472  0.69892684  0.01517490     1.04330
C71         C  0.51038558  0.71122619  0.90109192     0.94330
C72         C  0.51243624  0.75393346  0.11672903     0.93470
C73         C  0.61982420  0.76076696  0.00418104     0.85610
C74         C  0.40027980  0.76348145  0.00642700     0.91890
C75         C  0.49486393  0.65856244  0.66254429    -0.01410
O76         O  0.51571752  0.91869632  0.67894136    -0.71870
O77         O  0.50513087  0.07486888  0.66788942    -0.72850
O78         O  0.60093792  0.99978234  0.68468271    -0.61470
O79         O  0.42153682  0.99214576  0.69742353    -0.69880
O80         O  0.43728800  0.02673635  0.78129951    -0.69430
O81         O  0.59059799  0.98138863  0.77386260    -0.60680
O82         O  0.53151631  0.08864441  0.75527979    -0.73190
O83         O  0.48693650  0.92067009  0.76586657    -0.71970
Cu84       Cu  0.51075325  0.99652664  0.67748348     1.04560
Cu85       Cu  0.51295828  0.00454445  0.77327255     1.04330
C86         C  0.48942992  0.89615195  0.71731839     0.94330
C87         C  0.51995658  0.10763895  0.70579323     0.93470
C88         C  0.62264454  0.98946010  0.73348631     0.85610
C89         C  0.40393862  0.00505027  0.74768264     0.91890
O90         O  0.42169140  0.29718694  0.01356878    -0.71870
O91         O  0.60137563  0.30409999  0.99570408    -0.72850
O92         O  0.50436212  0.31622278  0.92647311    -0.61470
O93         O  0.51986906  0.31535644  0.08126616    -0.69880
O94         O  0.51776967  0.22459901  0.09171185    -0.69430
O95         O  0.52701659  0.22755091  0.91674491    -0.60680
O96         O  0.59565484  0.21376262  0.00812323    -0.73190
O97         O  0.44125851  0.20851528  0.00169248    -0.71970
Cu98       Cu  0.51115808  0.31206713  0.00436556     1.04560
Cu99       Cu  0.51970026  0.21505432  0.00431386     1.04330
C100        C  0.40501325  0.24626219  0.00949108     0.94330
C101        C  0.62462493  0.25490261  0.99942175     0.93470
C102        C  0.52217696  0.27705343  0.89616328     0.85610
C103        C  0.52168275  0.27427155  0.11230538     0.91890
C104        C  0.50439975  0.35096831  0.66540735    -0.01410
O105        O  0.42788186  0.98891606  0.19649431    -0.71870
O106        O  0.57956717  0.00819761  0.19249970    -0.72850
O107        O  0.51289008  0.91080770  0.21694645    -0.61470
O108        O  0.49237057  0.08691726  0.20601240    -0.69880
O109        O  0.49429148  0.07963451  0.29775806    -0.69430
O110        O  0.51613368  0.92891161  0.30722414    -0.60680
O111        O  0.59577567  0.01184595  0.28306619    -0.73190
O112        O  0.41538689  0.99458336  0.28697095    -0.71970
Cu113      Cu  0.50339505  0.99839784  0.19953607     1.04560
Cu114      Cu  0.50560265  0.00410241  0.29749813     1.04330
C115        C  0.39495695  0.99030179  0.23649488     0.94330
C116        C  0.61375988  0.01226041  0.23164272     0.93470
C117        C  0.51601398  0.89412246  0.26853910     0.85610
C118        C  0.49107498  0.10924924  0.25571722     0.91890
C119        C  0.49419928  0.66971054  0.34644420    -0.01410
C120        C  0.49327829  0.34006589  0.34368537    -0.01410
O121        O  0.27712947  0.99641789  0.58994188    -0.71870
O122        O  0.27523305  0.00770088  0.41316265    -0.72850
O123        O  0.29367611  0.08096083  0.50652952    -0.61470
O124        O  0.29696193  0.92430996  0.49649425    -0.69880
O125        O  0.20503020  0.91390208  0.50215937    -0.69430
O126        O  0.20142786  0.09314748  0.51083639    -0.60680
O127        O  0.18478272  0.00783915  0.43058197    -0.73190
O128        O  0.18481937  0.99927046  0.57941213    -0.71970
Cu129      Cu  0.28996871  0.00238563  0.50141274     1.04560
Cu130      Cu  0.19071374  0.00350137  0.50531596     1.04330
C131        C  0.22624875  0.99697442  0.61051044     0.94330
C132        C  0.22310516  0.00923342  0.39597536     0.93470
C133        C  0.25197870  0.11346985  0.51001849     0.85610
C134        C  0.25627683  0.89281672  0.50058752     0.91890
C135        C  0.33761948  0.65599237  0.50387563    -0.01410
O136        O  0.78817086  0.90962400  0.48961224    -0.71870
O137        O  0.76244407  0.08266482  0.47345228    -0.72850
O138        O  0.79909881  0.00772537  0.56053776    -0.61470
O139        O  0.78228959  0.98719595  0.40301832    -0.69880
O140        O  0.68917410  0.99373021  0.40103556    -0.69430
O141        O  0.71036916  0.99017699  0.57895310    -0.60680
O142        O  0.67408637  0.06713776  0.49458566    -0.73190
O143        O  0.69553753  0.91579311  0.48348137    -0.71970
Cu144      Cu  0.78688022  0.99741676  0.48125341     1.04560
Cu145      Cu  0.68886488  0.99132215  0.49004210     1.04330
C146        C  0.73934754  0.88668639  0.48757493     0.94330
C147        C  0.71106307  0.10080851  0.48309775     0.93470
C148        C  0.76161153  0.99953280  0.59617677     0.85610
C149        C  0.73735069  0.98927362  0.37555369     0.91890
C150        C  0.66055035  0.66020025  0.50108421    -0.01410
O151        O  0.08422819  0.70475450  0.47857858    -0.71870
O152        O  0.92993832  0.69573911  0.50689225    -0.72850
O153        O  0.99366869  0.70970200  0.40743638    -0.61470
O154        O  0.01558800  0.71868123  0.58407097    -0.69880
O155        O  0.00782324  0.80809813  0.57100112    -0.69430
O156        O  0.00642201  0.79906622  0.41944198    -0.60680
O157        O  0.91477948  0.78547727  0.49602128    -0.73190
O158        O  0.09401851  0.79439053  0.49315693    -0.71970
Cu159      Cu  0.00662063  0.70347150  0.49467120     1.04560
Cu160      Cu  0.00518038  0.80021027  0.49479585     1.04330
C161        C  0.11552594  0.74554211  0.48338677     0.94330
C162        C  0.89588406  0.73541241  0.50116123     0.93470
C163        C  0.99731540  0.75914093  0.38776207     0.85610
C164        C  0.01282817  0.76897409  0.60404505     0.91890
O165        O  0.00742795  0.17201336  0.43034246    -0.71870
O166        O  0.00831141  0.19088379  0.58454248    -0.72850
O167        O  0.91661696  0.20393918  0.50815182    -0.61470
O168        O  0.09756880  0.20018567  0.50634093    -0.69880
O169        O  0.07934704  0.28870129  0.49179993    -0.69430
O170        O  0.92771137  0.29370466  0.49863386    -0.60680
O171        O  0.00539751  0.28231107  0.58673292    -0.73190
O172        O  0.00406711  0.26077408  0.41100005    -0.71970
Cu173      Cu  0.00737941  0.18739165  0.50741361     1.04560
Cu174      Cu  0.00409871  0.28473244  0.49655060     1.04330
C175        C  0.00632934  0.20925779  0.39489480     0.94330
C176        C  0.00710330  0.23482913  0.61208152     0.93470
C177        C  0.89593755  0.25460998  0.50552945     0.85610
C178        C  0.11422300  0.25064306  0.49906322     0.91890
C179        C  0.65820733  0.33802084  0.50992455    -0.01410
C180        C  0.33614335  0.34442274  0.51361835    -0.01410
C181        C  0.99575296  0.14511920  0.16114698    -0.01410
C182        C  0.82540355  0.99557546  0.14413227    -0.01410
C183        C  0.99488464  0.84081615  0.16318935    -0.01410
C184        C  0.15793970  0.99620420  0.16574491    -0.01410
C185        C  0.01855482  0.84221187  0.83183174    -0.01410
C186        C  0.17338089  0.99934237  0.84631047    -0.01410
C187        C  0.01103716  0.16702183  0.85223232    -0.01410
C188        C  0.85226987  0.00147611  0.82890613    -0.01410
C189        C  0.17294420  0.15787224  0.01437739    -0.01410
C190        C  0.16325901  0.84012039  0.00873177    -0.01410
C191        C  0.84159466  0.15422218  0.99824770    -0.01410
C192        C  0.85130206  0.83588060  0.98754006    -0.01410
C193        C  0.86118123  0.04796085  0.12258781     0.04200
C194        C  0.91335050  0.06736986  0.14751987    -0.11940
C195        C  0.94209202  0.11643362  0.12922977     0.01710
C196        C  0.92252449  0.13709957  0.07613604    -0.10470
C197        C  0.87006046  0.12266361  0.05073936     0.04200
C198        C  0.84368227  0.07526599  0.07272912    -0.09890
H199        H  0.93063342  0.04453109  0.18188647     0.09790
H200        H  0.94568938  0.16787501  0.05547675     0.07320
H201        H  0.80825495  0.05928996  0.04977970     0.07170
C202        C  0.05241841  0.86551102  0.13476917     0.04200
C203        C  0.07655408  0.84848960  0.08164081    -0.11940
C204        C  0.12978318  0.86816758  0.06181678     0.01710
C205        C  0.14515066  0.92022414  0.08571561    -0.10470
C206        C  0.12614329  0.94176499  0.13902474     0.04200
C207        C  0.08220806  0.90983500  0.16310580    -0.09890
H208        H  0.05495284  0.81882831  0.05582134     0.09790
H209        H  0.17455237  0.94275258  0.06264932     0.07320
H210        H  0.07238760  0.91668903  0.20534724     0.07170
C211        C  0.14230968  0.05452862  0.87746180     0.04200
C212        C  0.16586424  0.07804401  0.92855644    -0.11940
C213        C  0.14606793  0.12916817  0.95593114     0.01710
C214        C  0.09705077  0.15547946  0.92864781    -0.10470
C215        C  0.06681317  0.13346145  0.88065498     0.04200
C216        C  0.08740581  0.07884483  0.86275655    -0.09890
H217        H  0.19778923  0.05346140  0.94854908     0.09790
H218        H  0.08059592  0.19380200  0.94643472     0.07320
H219        H  0.05888458  0.05446728  0.83920692     0.07170
C220        C  0.86096359  0.94168370  0.11970327     0.04200
C221        C  0.91227623  0.92142538  0.14593594    -0.11940
C222        C  0.94171644  0.87076770  0.12996112     0.01710
C223        C  0.92541892  0.84893533  0.07588148    -0.10470
C224        C  0.87623798  0.86623350  0.04461018     0.04200
C225        C  0.84605286  0.91411462  0.06843637    -0.09890
H226        H  0.93143569  0.94791961  0.17622817     0.09790
H227        H  0.95457464  0.82091709  0.05684588     0.07320
H228        H  0.81041011  0.93124576  0.04585170     0.07170
C229        C  0.13565959  0.87098643  0.95297330     0.04200
C230        C  0.08598213  0.85258420  0.92381370    -0.11940
C231        C  0.07071331  0.86863384  0.86806653     0.01710
C232        C  0.10010663  0.91591399  0.84777626    -0.10470
C233        C  0.14629653  0.94373916  0.87568546     0.04200
C234        C  0.15978151  0.92153837  0.93038945    -0.09890
H235        H  0.05575305  0.83001266  0.94643016     0.09790
H236        H  0.08390111  0.93328921  0.80959719     0.07320
H237        H  0.19026313  0.94268876  0.95548155     0.07170
C238        C  0.87244115  0.12685705  0.94309951     0.04200
C239        C  0.92546272  0.14898764  0.92485054    -0.11940
C240        C  0.95330485  0.13472270  0.87329315     0.01710
C241        C  0.92946655  0.08621976  0.84436464    -0.10470
C242        C  0.87795415  0.05770193  0.86109705     0.04200
C243        C  0.85237790  0.07936351  0.91210752    -0.09890
H244        H  0.94533561  0.17829267  0.95206841     0.09790
H245        H  0.95083011  0.07063235  0.80750692     0.07320
H246        H  0.81647190  0.05823712  0.92821112     0.07170
C247        C  0.87995790  0.86846477  0.93327317     0.04200
C248        C  0.92988481  0.84482880  0.90525964    -0.11940
C249        C  0.95951958  0.86994443  0.85876080     0.01710
C250        C  0.93582784  0.92283190  0.84104776    -0.10470
C251        C  0.88356928  0.94760124  0.86104156     0.04200
C252        C  0.86381972  0.92383250  0.91336448    -0.09890
H253        H  0.94687282  0.80597222  0.92067277     0.09790
H254        H  0.95924241  0.94711854  0.81274858     0.07320
H255        H  0.83501808  0.94873902  0.93773425     0.07170
C256        C  0.13929318  0.12987072  0.06558096     0.04200
C257        C  0.08148883  0.14273585  0.08023538    -0.11940
C258        C  0.05250722  0.12019238  0.12750837     0.01710
C259        C  0.07687454  0.06794458  0.14371664    -0.10470
C260        C  0.13368658  0.04886401  0.13094875     0.04200
C261        C  0.16423410  0.08356286  0.09403164    -0.09890
H262        H  0.05889074  0.16528723  0.05057592     0.09790
H263        H  0.05182377  0.04326452  0.17032454     0.07320
H264        H  0.20772006  0.07586790  0.08652145     0.07170
C265        C  0.36491762  0.37565454  0.56784173     0.04200
C266        C  0.34371284  0.42624206  0.59354080    -0.11940
C267        C  0.36814600  0.45223821  0.64275935     0.01710
C268        C  0.42039693  0.42794816  0.66287273    -0.10470
C269        C  0.44686639  0.37905447  0.63858704     0.04200
C270        C  0.41937090  0.35692967  0.58884382    -0.09890
H271        H  0.30869067  0.44735160  0.57391843     0.09790
H272        H  0.44177134  0.44802302  0.69700793     0.07320
H273        H  0.43948978  0.32217315  0.56743359     0.07170
C274        C  0.54906697  0.36691610  0.37655992     0.04200
C275        C  0.57472665  0.41598036  0.35456015    -0.11940
C276        C  0.62478542  0.44214548  0.37593643     0.01710
C277        C  0.64792883  0.41648044  0.42672053    -0.10470
C278        C  0.62696757  0.36586619  0.45271559     0.04200
C279        C  0.57282377  0.34879987  0.42969433    -0.09890
H280        H  0.55455717  0.43513823  0.31897196     0.09790
H281        H  0.68121134  0.43743010  0.44829282     0.07320
H282        H  0.54922413  0.31913738  0.45182152     0.07170
C283        C  0.36785466  0.55478225  0.37185608     0.04200
C284        C  0.41708293  0.58326778  0.34924891    -0.11940
C285        C  0.43976552  0.63522583  0.37109622     0.01710
C286        C  0.41661709  0.65220197  0.42415183    -0.10470
C287        C  0.36894910  0.62718060  0.45033749     0.04200
C288        C  0.34761797  0.57801856  0.42392456    -0.09890
H289        H  0.43991764  0.56564014  0.31531275     0.09790
H290        H  0.43381044  0.68831931  0.44386940     0.07320
H291        H  0.31327515  0.55761984  0.44415407     0.07170
C292        C  0.36129497  0.44407115  0.37910017     0.04200
C293        C  0.40840478  0.41453926  0.35326246    -0.11940
C294        C  0.43787763  0.36763213  0.37551175     0.01710
C295        C  0.41758137  0.34875348  0.42936386    -0.10470
C296        C  0.36777232  0.37148715  0.45778540     0.04200
C297        C  0.34575088  0.42302240  0.43352953    -0.09890
H298        H  0.42505619  0.42961897  0.31538168     0.09790
H299        H  0.44248159  0.31758308  0.45019764     0.06640
H300        H  0.31774218  0.44769266  0.45911367     0.07170
C301        C  0.36661867  0.62693247  0.55867880     0.04200
C302        C  0.34582683  0.57805699  0.58435025    -0.11940
C303        C  0.36263228  0.55976561  0.63919352     0.01710
C304        C  0.41030126  0.58720463  0.66281419    -0.10470
C305        C  0.43938476  0.63077510  0.63590502     0.04200
C306        C  0.41991900  0.64298043  0.58047689    -0.09890
H307        H  0.32045712  0.55224018  0.55871890     0.09790
H308        H  0.42771297  0.57082919  0.70094829     0.07320
H309        H  0.44811394  0.66076567  0.55184517     0.07170
C310        C  0.63290752  0.37540423  0.56111502     0.04200
C311        C  0.58254315  0.35869889  0.58743965    -0.11940
C312        C  0.55875402  0.38264122  0.63689718     0.01710
C313        C  0.58490428  0.43465803  0.65378173    -0.10470
C314        C  0.63799333  0.45515454  0.63183240     0.04200
C315        C  0.65498533  0.42756597  0.58036117    -0.09890
H316        H  0.56099536  0.32499290  0.56932656     0.09790
H317        H  0.56136282  0.46277045  0.67947711     0.07320
H318        H  0.68677706  0.44551939  0.55518468     0.07170
C319        C  0.55018091  0.63740106  0.37409371     0.04200
C320        C  0.56990483  0.58347792  0.35285461    -0.11940
C321        C  0.62084245  0.55406862  0.37091996     0.01710
C322        C  0.64602755  0.57730217  0.42117681    -0.10470
C323        C  0.63068062  0.63070363  0.44598072     0.04200
C324        C  0.58079192  0.65705737  0.42216190    -0.09890
H325        H  0.54221088  0.56228980  0.32503768     0.09790
H326        H  0.67527956  0.55101483  0.44304268     0.07320
H327        H  0.56347361  0.69149595  0.44487913     0.07170
C328        C  0.62831718  0.63565335  0.55561261     0.04200
C329        C  0.65547038  0.59010916  0.58327819    -0.11940
C330        C  0.63476691  0.56291405  0.63171341     0.01710
C331        C  0.57908023  0.58078501  0.64965345    -0.10470
C332        C  0.54835220  0.62898261  0.62708037     0.04200
C333        C  0.57207949  0.65067863  0.57601175    -0.09890
H334        H  0.69339997  0.57356581  0.56408322     0.09790
H335        H  0.56171762  0.56027867  0.68532885     0.07320
H336        H  0.54749417  0.68078752  0.55308153     0.07170
C337        C  0.17127756  0.27512905  0.50208985    -0.04260
C338        C  0.19887121  0.28750412  0.45220645    -0.01380
C339        C  0.24771895  0.32016674  0.45282247     0.03610
C340        C  0.26854716  0.34851766  0.50123794    -0.04260
C341        C  0.22480087  0.35402970  0.54171826    -0.01370
C342        C  0.17913039  0.31623381  0.54407457     0.03610
C343        C  0.17288513  0.27544392  0.39856982     0.38260
C344        C  0.21636523  0.40179211  0.57573635     0.38250
C345        C  0.13366203  0.32821550  0.58381661     0.36670
C346        C  0.28329813  0.30892688  0.40783642     0.36670
N347        N  0.09724689  0.34173295  0.61334127    -0.38150
N348        N  0.31313566  0.29100344  0.37487434    -0.38150
N349        N  0.19381121  0.43451890  0.60338537    -0.37590
N350        N  0.15318778  0.27047747  0.35461230    -0.37600
C351        C  0.00780557  0.17112422  0.78423938    -0.04260
C352        C  0.95893690  0.19315560  0.75492835    -0.01380
C353        C  0.95975095  0.20073887  0.69711392     0.03610
C354        C  0.00734314  0.22342643  0.67317144    -0.04260
C355        C  0.05764688  0.20638853  0.69936057    -0.01370
C356        C  0.05708522  0.17491545  0.74979467     0.03610
C357        C  0.92072750  0.23549334  0.77542087     0.38260
C358        C  0.10995065  0.21878550  0.67246951     0.38250
C359        C  0.10908480  0.15238941  0.76736092     0.36670
C360        C  0.90900591  0.19205238  0.66555390     0.36670
N361        N  0.15212627  0.13553671  0.78139148    -0.38150
N362        N  0.86686318  0.18473843  0.64297574    -0.38150
N363        N  0.15111865  0.22983713  0.65026901    -0.37590
N364        N  0.88891044  0.27258199  0.77895931    -0.37600
C365        C  0.00589505  0.18730477  0.33621380    -0.04260
C366        C  0.95805632  0.15938894  0.31704860    -0.01380
C367        C  0.96076326  0.12569378  0.26729624     0.03610
C368        C  0.00554377  0.13051108  0.22724954    -0.04260
C369        C  0.05581547  0.14975725  0.25450405    -0.01370
C370        C  0.05636332  0.16984436  0.31030913     0.03610
C371        C  0.90975189  0.15535149  0.35440145     0.38260
C372        C  0.10661787  0.15812297  0.22526129     0.38250
C373        C  0.10690891  0.16129630  0.34362961     0.36670
C374        C  0.94067859  0.07268224  0.28142448     0.36670
N375        N  0.14654248  0.15148246  0.37036805    -0.38150
N376        N  0.92288683  0.03577014  0.30507876    -0.38150
N377        N  0.14832251  0.16667129  0.20330771    -0.37590
N378        N  0.87247597  0.14971966  0.38473074    -0.37600
C379        C  0.72637123  0.33708817  0.50319524    -0.04260
C380        C  0.75214927  0.30731480  0.45630005    -0.01380
C381        C  0.80798142  0.28527505  0.45742822     0.03610
C382        C  0.83600621  0.27565013  0.50727422    -0.04260
C383        C  0.81673633  0.30795046  0.55287159    -0.01370
C384        C  0.76452749  0.33970752  0.55100809     0.03610
C385        C  0.72399153  0.28739344  0.40770525     0.38260
C386        C  0.84909585  0.30503785  0.60434520     0.38250
C387        C  0.74636460  0.35854692  0.60544114     0.36670
C388        C  0.83824795  0.27495069  0.40585106     0.36670
N389        N  0.73587956  0.36846791  0.65166340    -0.38150
N390        N  0.86289745  0.26866069  0.36482749    -0.38150
N391        N  0.87315962  0.30394230  0.64640430    -0.37590
N392        N  0.71661086  0.26291244  0.36659868    -0.37600
C393        C  0.03058230  0.85335407  0.76637514    -0.04260
C394        C  0.07560999  0.82331816  0.73925710    -0.01380
C395        C  0.06525527  0.78600557  0.69424691     0.03610
C396        C  0.01476705  0.78941154  0.66378813    -0.04260
C397        C  0.97758521  0.83460223  0.67937376    -0.01370
C398        C  0.98856341  0.86861279  0.72730196     0.03610
C399        C  0.13282086  0.82387286  0.75776385     0.38260
C400        C  0.93593797  0.85515506  0.63925062     0.38250
C401        C  0.98004256  0.92683533  0.71669508     0.36670
C402        C  0.10833033  0.74426679  0.68254235     0.36670
N403        N  0.96964021  0.97143170  0.70238455    -0.38150
N404        N  0.14687302  0.71404838  0.68326362    -0.38150
N405        N  0.90609538  0.87325358  0.60542122    -0.37590
N406        N  0.18015921  0.81281777  0.76192240    -0.37600
C407        C  0.00681168  0.84265205  0.22975664    -0.04260
C408        C  0.04932451  0.80450604  0.25062373    -0.01380
C409        C  0.03700747  0.76663871  0.29336129     0.03610
C410        C  0.99247993  0.77832685  0.32967925    -0.04260
C411        C  0.96176819  0.82894340  0.32137033    -0.01370
C412        C  0.96818468  0.85951904  0.27181737     0.03610
C413        C  0.10304037  0.79949826  0.22462250     0.38260
C414        C  0.92589193  0.85266613  0.36575086     0.38250
C415        C  0.93120163  0.90539757  0.26688728     0.36670
C416        C  0.06844068  0.71473074  0.29884393     0.36670
N417        N  0.89767008  0.93987689  0.27204876    -0.38150
N418        N  0.09097871  0.67180754  0.30218297    -0.38150
N419        N  0.90001472  0.87406085  0.40122206    -0.37590
N420        N  0.14709016  0.79697394  0.20490649    -0.37600
C421        C  0.72861047  0.65848465  0.51504204    -0.04260
C422        C  0.75165214  0.69598013  0.55716937    -0.01380
C423        C  0.80373123  0.72358080  0.54997713     0.03610
C424        C  0.83570243  0.71655750  0.50161364    -0.04260
C425        C  0.82101165  0.67074135  0.46711442    -0.01370
C426        C  0.77117683  0.63984077  0.47685381     0.03610
C427        C  0.72311606  0.71329021  0.60738704     0.38260
C428        C  0.86094763  0.65068406  0.42500690     0.38250
C429        C  0.77088402  0.58554013  0.45329738     0.36670
C430        C  0.82833537  0.75348317  0.59644834     0.36670
N431        N  0.77800852  0.54214074  0.43385643    -0.38150
N432        N  0.84692509  0.77487293  0.63549817    -0.38150
N433        N  0.89367464  0.63317772  0.39323532    -0.37590
N434        N  0.71056552  0.73826627  0.64709624    -0.37600
C435        C  0.69233817  0.16049936  0.49056773    -0.04260
C436        C  0.63408002  0.17752421  0.48688616    -0.01380
C437        C  0.61514617  0.23184168  0.50571874     0.03610
C438        C  0.65410891  0.27099297  0.52658181    -0.04260
C439        C  0.70212115  0.24026667  0.55029959    -0.01370
C440        C  0.72641736  0.19376385  0.52278924     0.03610
C441        C  0.59293056  0.14011590  0.46333413     0.38260
C442        C  0.72138603  0.24613137  0.60710954     0.38250
C443        C  0.78188444  0.17207065  0.53790645     0.36670
C444        C  0.55556007  0.24014257  0.51488205     0.36670
N445        N  0.82471092  0.14991137  0.54640133    -0.38150
N446        N  0.50782160  0.24489362  0.52387152    -0.38150
N447        N  0.74310217  0.24736928  0.65052467    -0.37590
N448        N  0.55987137  0.11051171  0.44478936    -0.37600
C449        C  0.72459153  0.82761076  0.49316645    -0.04260
C450        C  0.68072943  0.81687976  0.53124197    -0.01380
C451        C  0.64971532  0.76760969  0.52797401     0.03610
C452        C  0.66161671  0.72530090  0.48760678    -0.04260
C453        C  0.69841302  0.74263034  0.44303468    -0.01370
C454        C  0.73166104  0.79080720  0.44818379     0.03610
C455        C  0.66514912  0.85844967  0.57401575     0.38260
C456        C  0.71489290  0.70524997  0.39820995     0.38250
C457        C  0.77642005  0.79986334  0.40861212     0.36670
C458        C  0.61059338  0.76191519  0.57187850     0.36670
N459        N  0.81175170  0.80332230  0.37582046    -0.38150
N460        N  0.58361396  0.76635393  0.61139618    -0.38150
N461        N  0.73375374  0.67752307  0.36299142    -0.37590
N462        N  0.65098132  0.89069045  0.60765624    -0.37600
C463        C  0.85584851  0.99943601  0.75979328    -0.04260
C464        C  0.83954021  0.04789741  0.72884470    -0.01380
C465        C  0.80196550  0.04719521  0.68176881     0.03610
C466        C  0.78424254  0.99857340  0.65611968    -0.04260
C467        C  0.80806527  0.95011829  0.67774034    -0.01370
C468        C  0.84323109  0.94980983  0.72703913     0.03610
C469        C  0.85118572  0.10140223  0.74937558     0.38260
C470        C  0.79197633  0.89974785  0.64966064     0.38250
C471        C  0.86208713  0.89581947  0.74272408     0.36670
C472        C  0.77404993  0.09726914  0.66430425     0.36670
N473        N  0.87280148  0.84960792  0.74932372    -0.38150
N474        N  0.74961731  0.13717965  0.65294595    -0.38150
N475        N  0.77602066  0.86182939  0.62514009    -0.37590
N476        N  0.85226673  0.14696529  0.76301623    -0.37600
C477        C  0.74828223  0.99122598  0.31444150    -0.04260
C478        C  0.76049587  0.94195581  0.28460086    -0.01380
C479        C  0.79089626  0.94217971  0.23322928     0.03610
C480        C  0.81358608  0.99183870  0.21017526    -0.04260
C481        C  0.80418461  0.04005211  0.24463563    -0.01370
C482        C  0.77115643  0.04011103  0.29415962     0.03610
C483        C  0.73595493  0.89094182  0.30288920     0.38260
C484        C  0.82754466  0.09145474  0.23092262     0.38250
C485        C  0.76016591  0.09168110  0.32496345     0.36670
C486        C  0.78836246  0.89221465  0.20024959     0.36670
N487        N  0.75114786  0.13281413  0.34903810    -0.38150
N488        N  0.77811168  0.85333777  0.17408308    -0.38150
N489        N  0.84801043  0.13338252  0.22398106    -0.37590
N490        N  0.71597437  0.84907240  0.31309708    -0.37600
C491        C  0.17524681  0.72698988  0.48978303    -0.04260
C492        C  0.18734688  0.70025968  0.54032109    -0.01380
C493        C  0.23849828  0.67116854  0.54771807     0.03610
C494        C  0.27061424  0.64965335  0.50206765    -0.04260
C495        C  0.23894644  0.65465650  0.45121802    -0.01370
C496        C  0.20365708  0.70278066  0.44344030     0.03610
C497        C  0.14100069  0.67997067  0.57232701     0.38260
C498        C  0.20778093  0.60719582  0.43394590     0.38250
C499        C  0.18913627  0.71929743  0.38736965     0.36670
C500        C  0.24957812  0.65729003  0.60328804     0.36670
N501        N  0.18150132  0.73404256  0.34218752    -0.38150
N502        N  0.24630150  0.64718854  0.64951142    -0.38150
N503        N  0.17572173  0.57382942  0.42182102    -0.37590
N504        N  0.10403543  0.65939729  0.59431870    -0.37600
C505        C  0.26935928  0.17353596  0.51387824    -0.04260
C506        C  0.30296050  0.19446477  0.47098091    -0.01380
C507        C  0.34309095  0.23666097  0.48113261     0.03610
C508        C  0.33520360  0.27691613  0.52505445    -0.04260
C509        C  0.30075516  0.25361037  0.56959049    -0.01370
C510        C  0.27649205  0.19981901  0.56569429     0.03610
C511        C  0.29235026  0.17727946  0.41428108     0.38260
C512        C  0.27581199  0.28502358  0.61482503     0.38250
C513        C  0.25559188  0.17344828  0.61525448     0.36670
C514        C  0.39654863  0.22679835  0.45459623     0.36670
N515        N  0.23938052  0.15429803  0.65599778    -0.38150
N516        N  0.43845167  0.21309330  0.43345894    -0.38150
N517        N  0.24846624  0.30321135  0.65082046    -0.37590
N518        N  0.28090358  0.16930129  0.36805479    -0.37600
C519        C  0.16520603  0.98620296  0.78059863    -0.04260
C520        C  0.19786177  0.94190815  0.75248716    -0.01380
C521        C  0.20721536  0.94324982  0.69512278     0.03610
C522        C  0.20808638  0.99433301  0.66941867    -0.04260
C523        C  0.16718711  0.03335335  0.69040433    -0.01370
C524        C  0.14027363  0.02383510  0.74227196     0.03610
C525        C  0.24061425  0.90625684  0.77651704     0.38260
C526        C  0.14327217  0.07506912  0.65342006     0.38250
C527        C  0.08094041  0.03648193  0.74368920     0.36670
C528        C  0.20333584  0.89253199  0.66236995     0.36670
N529        N  0.03400553  0.05010253  0.74123510    -0.38150
N530        N  0.19699574  0.85212920  0.63678369    -0.38150
N531        N  0.12311822  0.10588704  0.62213871    -0.37590
N532        N  0.27930578  0.87775504  0.78655215    -0.37600
C533        C  0.19995757  0.01559748  0.33797749    -0.04260
C534        C  0.14379191  0.99787517  0.32490852    -0.01380
C535        C  0.12112858  0.00466631  0.27077786     0.03610
C536        C  0.15497858  0.02339248  0.22750043    -0.04260
C537        C  0.20133643  0.05748473  0.24627931    -0.01370
C538        C  0.22644229  0.04864711  0.29928581     0.03610
C539        C  0.11042136  0.96675911  0.36411933     0.38260
C540        C  0.23304733  0.08948234  0.20743263     0.38250
C541        C  0.28364520  0.06501990  0.31099722     0.36670
C542        C  0.06253462  0.99609562  0.26156750     0.36670
N543        N  0.33003813  0.07409367  0.32213329    -0.38150
N544        N  0.01588403  0.98714392  0.25269144    -0.38150
N545        N  0.25977141  0.11400402  0.17650965    -0.37590
N546        N  0.08352526  0.94179763  0.39475510    -0.37600
C547        C  0.33607116  0.72397105  0.50307150    -0.04260
C548        C  0.31853292  0.75240889  0.45339549    -0.01380
C549        C  0.28623820  0.80317769  0.45391153     0.03610
C550        C  0.27521844  0.83263233  0.50352881    -0.04260
C551        C  0.30458554  0.81282444  0.55101207    -0.01370
C552        C  0.32875029  0.75805403  0.55224589     0.03610
C553        C  0.31921665  0.72214164  0.40275464     0.38260
C554        C  0.31456994  0.85022632  0.59778606     0.38250
C555        C  0.34077928  0.73714190  0.60630815     0.36670
C556        C  0.26161120  0.82423784  0.40287842     0.36670
N557        N  0.34810725  0.72161289  0.65091219    -0.38150
N558        N  0.24028759  0.84009293  0.36254767    -0.38150
N559        N  0.32460757  0.87969955  0.63482777    -0.37590
N560        N  0.31413086  0.68982447  0.36773002    -0.37600
C561        C  0.48979844  0.16888159  0.27274193    -0.04260
C562        C  0.53489543  0.18673664  0.30602955    -0.01380
C563        C  0.52978472  0.23509153  0.34003989     0.03610
C564        C  0.48418154  0.27348787  0.33744082    -0.04260
C565        C  0.43520944  0.24924548  0.31034550    -0.01370
C566        C  0.43815137  0.19645325  0.28238335     0.03610
C567        C  0.58506627  0.15093905  0.31191489     0.38260
C568        C  0.38526164  0.28052027  0.29544491     0.38250
C569        C  0.38777451  0.17199103  0.25964408     0.36670
C570        C  0.57504989  0.24419724  0.37540137     0.36670
N571        N  0.34754283  0.15423473  0.23988324    -0.38150
N572        N  0.61715293  0.24729048  0.39783166    -0.38150
N573        N  0.34666163  0.30130760  0.27383536    -0.37590
N574        N  0.62447964  0.12291135  0.31967802    -0.37600
C575        C  0.76012185  0.00117675  0.12388191    -0.04260
C576        C  0.72894100  0.05146330  0.13449985    -0.01380
C577        C  0.69544465  0.05720951  0.18407688     0.03610
C578        C  0.67248819  0.00921298  0.20825644    -0.04260
C579        C  0.68500964  0.95888316  0.17859209    -0.01370
C580        C  0.72206249  0.95728942  0.13152751     0.03610
C581        C  0.69633015  0.07042529  0.08702537     0.38260
C582        C  0.65394801  0.91008333  0.19222186     0.38250
C583        C  0.69709926  0.93224715  0.08311133     0.36670
C584        C  0.67077283  0.11127338  0.19734515     0.36670
N585        N  0.66968693  0.91420835  0.04772302    -0.38150
N586        N  0.65180224  0.15526515  0.20539004    -0.38150
N587        N  0.62761324  0.87306376  0.20569787    -0.37590
N588        N  0.66571218  0.08464370  0.05211143    -0.37600
C589        C  0.33468303  0.98565277  0.21688344    -0.04260
C590        C  0.29598825  0.95277764  0.24424381    -0.01380
C591        C  0.24115525  0.94568839  0.22133033     0.03610
C592        C  0.22255291  0.97433060  0.17102400    -0.04260
C593        C  0.26673467  0.99318025  0.13815702    -0.01370
C594        C  0.31998728  0.00389848  0.16170255     0.03610
C595        C  0.31226291  0.92935915  0.29746581     0.38260
C596        C  0.26122864  0.99225733  0.07890950     0.38250
C597        C  0.35741464  0.03773791  0.12898902     0.36670
C598        C  0.20281757  0.91127325  0.25141710     0.36670
N599        N  0.38663887  0.06485022  0.10267586    -0.38150
N600        N  0.17248284  0.88479213  0.27695315    -0.38150
N601        N  0.25498919  0.99034209  0.03131145    -0.37590
N602        N  0.32844308  0.91263397  0.33978089    -0.37600
C603        C  0.48238682  0.73723123  0.35494928    -0.04260
C604        C  0.44190933  0.76663931  0.31905307    -0.01380
C605        C  0.45720911  0.81303328  0.28617936     0.03610
C606        C  0.51014075  0.83640619  0.29073012    -0.04260
C607        C  0.54204926  0.81966562  0.33825934    -0.01370
C608        C  0.52508196  0.77461452  0.37259050     0.03610
C609        C  0.38691362  0.74802058  0.30422888     0.38260
C610        C  0.58749123  0.85440387  0.35803499     0.38250
C611        C  0.53378517  0.78549465  0.43097126     0.36670
C612        C  0.41641398  0.83882279  0.24837379     0.36670
N613        N  0.54325244  0.80151801  0.47556229    -0.38150
N614        N  0.38287303  0.85788903  0.21882987    -0.38150
N615        N  0.62144967  0.88322828  0.37611104    -0.37590
N616        N  0.34384302  0.74300190  0.28205794    -0.37600
C617        C  0.50215094  0.35086158  0.27695512    -0.04260
C618        C  0.45891985  0.33740014  0.23701676    -0.01380
C619        C  0.46895594  0.29335946  0.19787279     0.03610
C620        C  0.52127993  0.29030661  0.17189901    -0.04260
C621        C  0.55971011  0.32924519  0.19307475    -0.01370
C622        C  0.55686826  0.34161420  0.25044780     0.03610
C623        C  0.41940299  0.37699172  0.21509812     0.38260
C624        C  0.59336044  0.36271097  0.15705232     0.38250
C625        C  0.60090299  0.30796372  0.27395705     0.36670
C626        C  0.42316234  0.26255115  0.17369481     0.36670
N627        N  0.63680665  0.27579869  0.28214354    -0.38150
N628        N  0.38927293  0.23432941  0.15475143    -0.38150
N629        N  0.61792951  0.38951716  0.12614237    -0.37590
N630        N  0.38774377  0.40193042  0.18810701    -0.37600
C631        C  0.68436183  0.23657970  0.99581634    -0.04260
C632        C  0.69824849  0.19893299  0.95134717    -0.01380
C633        C  0.73727176  0.15358061  0.95926770     0.03610
C634        C  0.77427854  0.15272930  0.00557954    -0.04260
C635        C  0.75019973  0.18179863  0.05296051    -0.01370
C636        C  0.70993142  0.22564022  0.04735704     0.03610
C637        C  0.66421640  0.20058809  0.90086463     0.38260
C638        C  0.76536163  0.16939660  0.10906937     0.38250
C639        C  0.68985144  0.25494939  0.09715034     0.36670
C640        C  0.71518738  0.10085185  0.94288386     0.36670
N641        N  0.67514564  0.27501595  0.13881366    -0.38150
N642        N  0.69254234  0.06078320  0.93008914    -0.38150
N643        N  0.77010316  0.16634910  0.15669350    -0.37590
N644        N  0.63711989  0.20208135  0.86066198    -0.37600
C645        C  0.24111735  0.16075525  0.03159469    -0.04260
C646        C  0.28576847  0.14197115  0.99613750    -0.01380
C647        C  0.33339990  0.17458619  0.98387766     0.03610
C648        C  0.34582461  0.22353043  0.01411138    -0.04260
C649        C  0.30804763  0.23874866  0.05640426    -0.01370
C650        C  0.26136215  0.20437764  0.06954015     0.03610
C651        C  0.28963429  0.08784190  0.97352509     0.38260
C652        C  0.31467779  0.29209316  0.08414953     0.38250
C653        C  0.23780544  0.21650614  0.12359832     0.36670
C654        C  0.36797291  0.15826132  0.93600652     0.36670
N655        N  0.22741337  0.23247546  0.16824651    -0.38150
N656        N  0.39397839  0.14306147  0.89786262    -0.38150
N657        N  0.31919216  0.33473793  0.10611825    -0.37590
N658        N  0.30497789  0.04748817  0.95205652    -0.37600
C659        C  0.53338639  0.29354606  0.83697251    -0.04260
C660        C  0.50252501  0.26835934  0.79549091    -0.01380
C661        C  0.47349533  0.30454241  0.75950602     0.03610
C662        C  0.50219094  0.34913125  0.73382313    -0.04260
C663        C  0.53863451  0.37518436  0.77365971    -0.01370
C664        C  0.55249324  0.34808017  0.82560522     0.03610
C665        C  0.48196239  0.21367899  0.80602538     0.38260
C666        C  0.54781892  0.43412881  0.77279274     0.38250
C667        C  0.58373443  0.37754771  0.86854994     0.36670
C668        C  0.41716016  0.31398480  0.77888748     0.36670
N669        N  0.60827076  0.40153079  0.90258694    -0.38150
N670        N  0.37311679  0.31490764  0.79894040    -0.38150
N671        N  0.55462226  0.48137408  0.77743035    -0.37590
N672        N  0.46809622  0.16944450  0.81635252    -0.37600
C673        C  0.51760424  0.16745140  0.68915521    -0.04260
C674        C  0.56291759  0.19389753  0.66527091    -0.01380
C675        C  0.56031716  0.25206439  0.65783018     0.03610
C676        C  0.50833511  0.28341245  0.65293804    -0.04260
C677        C  0.46042834  0.24797305  0.65866653    -0.01370
C678        C  0.46516116  0.19324109  0.68065020     0.03610
C679        C  0.60773081  0.16050942  0.64052896     0.38260
C680        C  0.40555320  0.27009349  0.66421119     0.38250
C681        C  0.41604781  0.16671412  0.70361052     0.36670
C682        C  0.61076673  0.27837374  0.67139132     0.36670
N683        N  0.37753397  0.14925297  0.72618688    -0.38150
N684        N  0.65175729  0.29920287  0.68379094    -0.38150
N685        N  0.36158659  0.28197219  0.68006169    -0.37590
N686        N  0.64016415  0.13135707  0.61835378    -0.37600
C687        C  0.68313875  0.99338792  0.75167631    -0.04260
C688        C  0.70044478  0.04370120  0.77500335    -0.01380
C689        C  0.74860732  0.04691416  0.81111392     0.03610
C690        C  0.78303468  0.99970470  0.82723121    -0.04260
C691        C  0.75621745  0.94919444  0.81128589    -0.01370
C692        C  0.71137304  0.94593632  0.77148608     0.03610
C693        C  0.66747890  0.09367688  0.76274370     0.38260
C694        C  0.77985037  0.89838448  0.82889630     0.38250
C695        C  0.69935684  0.89310819  0.74557174     0.36670
C696        C  0.75937396  0.10152658  0.82952446     0.36670
N697        N  0.69511724  0.85055130  0.72360504    -0.38150
N698        N  0.75691225  0.14829784  0.83861142    -0.38150
N699        N  0.80308886  0.85808169  0.84030413    -0.37590
N700        N  0.64306897  0.13490297  0.75517080    -0.37600
C701        C  0.34638647  0.99637033  0.77240937    -0.04260
C702        C  0.34098140  0.97491087  0.82733426    -0.01380
C703        C  0.28797764  0.97754740  0.85680115     0.03610
C704        C  0.24158236  0.01218286  0.83848996    -0.04260
C705        C  0.25969145  0.04656061  0.79174895    -0.01370
C706        C  0.30175820  0.02816098  0.75311202     0.03610
C707        C  0.39034211  0.95054608  0.85452351     0.38260
C708        C  0.25821839  0.10580662  0.79259446     0.38250
C709        C  0.31009367  0.05481897  0.69981940     0.36670
C710        C  0.28678710  0.94659690  0.90706792     0.36670
N711        N  0.32201891  0.07341802  0.65729256    -0.38150
N712        N  0.29721835  0.92437649  0.94823586    -0.38150
N713        N  0.26376125  0.15242978  0.78362343    -0.37590
N714        N  0.42946745  0.93294966  0.87787378    -0.37600
C715        C  0.48994293  0.72782609  0.66734050    -0.04260
C716        C  0.50184066  0.75646637  0.72011806    -0.01380
C717        C  0.46633622  0.79959858  0.73828497     0.03610
C718        C  0.46318053  0.84223880  0.70112562    -0.04260
C719        C  0.45972178  0.82540691  0.64366255    -0.01370
C720        C  0.46831317  0.76786793  0.62749334     0.03610
C721        C  0.55781379  0.77722304  0.72953145     0.38260
C722        C  0.45058335  0.86725561  0.60119984     0.38250
C723        C  0.46309866  0.75656318  0.56905479     0.36670
C724        C  0.45697595  0.81006214  0.79706766     0.36670
N725        N  0.45601682  0.75267170  0.52149244    -0.38150
N726        N  0.44650737  0.81893226  0.84346643    -0.38150
N727        N  0.44369167  0.90035849  0.56713779    -0.37590
N728        N  0.60080493  0.79665260  0.73887889    -0.37600
C729        C  0.50839931  0.74396912  0.17804853    -0.04260
C730        C  0.46030757  0.71626891  0.19495293    -0.01380
C731        C  0.46199475  0.67716237  0.23921522     0.03610
C732        C  0.50603398  0.67537980  0.27995687    -0.04260
C733        C  0.55523480  0.70408493  0.26111371    -0.01370
C734        C  0.55748389  0.73217857  0.20902450     0.03610
C735        C  0.40719156  0.73141147  0.16853441     0.38260
C736        C  0.60036668  0.71737627  0.29806242     0.38250
C737        C  0.61090986  0.75184074  0.18939443     0.36670
C738        C  0.41435565  0.64400048  0.24345763     0.36670
N739        N  0.65478156  0.76713058  0.17677784    -0.38150
N740        N  0.37269829  0.62122637  0.24200334    -0.38150
N741        N  0.63658549  0.73575556  0.32377418    -0.37590
N742        N  0.36438466  0.74655402  0.15052570    -0.37600
C743        C  0.50180912  0.64495042  0.72892372    -0.04260
C744        C  0.55490109  0.65669524  0.75568304    -0.01380
C745        C  0.55777628  0.68042917  0.81060878     0.03610
C746        C  0.50976805  0.68475743  0.84383526    -0.04260
C747        C  0.46468905  0.65239498  0.82537944    -0.01370
C748        C  0.45514552  0.64943605  0.76739101     0.03610
C749        C  0.59923232  0.67100796  0.72005092     0.38260
C750        C  0.42194344  0.63405870  0.86359890     0.38250
C751        C  0.40971253  0.68747846  0.75566581     0.36670
C752        C  0.60755150  0.70825229  0.82915032     0.36670
N753        N  0.37835901  0.72489857  0.75538431    -0.38150
N754        N  0.64634737  0.73339013  0.84162700    -0.38150
N755        N  0.38870066  0.61834867  0.89455676    -0.37590
N756        N  0.62662720  0.68866901  0.68546002    -0.37600
C757        C  0.34039336  0.78484295  0.00890133    -0.04260
C758        C  0.30758435  0.78450245  0.96024201    -0.01380
C759        C  0.25734414  0.81740582  0.95689750     0.03610
C760        C  0.23116209  0.84485788  0.00410478    -0.04260
C761        C  0.26977263  0.85081214  0.04977412    -0.01370
C762        C  0.32545294  0.82750734  0.04782397     0.03610
C763        C  0.32802639  0.75502324  0.91106907     0.38260
C764        C  0.25094363  0.86176916  0.10477181     0.38250
C765        C  0.36872747  0.85265218  0.08191137     0.36670
C766        C  0.23378025  0.82531754  0.90371552     0.36670
N767        N  0.40407447  0.87469151  0.10627362    -0.38150
N768        N  0.21361731  0.83588037  0.86173217    -0.38150
N769        N  0.23765393  0.86011092  0.15075199    -0.37590
N770        N  0.34332578  0.73303585  0.87058974    -0.37600
C771        C  0.67883898  0.78082544  0.00049246    -0.04260
C772        C  0.71669712  0.77104832  0.04398025    -0.01380
C773        C  0.76750342  0.80064791  0.04765657     0.03610
C774        C  0.78529698  0.83688336  0.00323706    -0.04260
C775        C  0.74156042  0.85467882  0.96730395    -0.01370
C776        C  0.69063821  0.82492328  0.96328629     0.03610
C777        C  0.70872023  0.72344686  0.07914952     0.38260
C778        C  0.73980473  0.91055218  0.94830231     0.38250
C779        C  0.65014933  0.84073855  0.92023210     0.36670
C780        C  0.80654292  0.78104825  0.08958582     0.36670
N781        N  0.61821750  0.85376544  0.88590325    -0.38150
N782        N  0.83591767  0.76058322  0.12218726    -0.38150
N783        N  0.73339750  0.95622991  0.93574312    -0.37590
N784        N  0.70617377  0.68474030  0.10685507    -0.37600
C785        C  0.15883846  0.50178465  0.28439629    -0.04260
C786        C  0.17362933  0.46961355  0.33218884    -0.01380
C787        C  0.22421365  0.47858132  0.36389868     0.03610
C788        C  0.26665269  0.51523562  0.34602443    -0.04260
C789        C  0.24452906  0.55392957  0.30468098    -0.01370
C790        C  0.19499301  0.54439555  0.27190602     0.03610
C791        C  0.13639030  0.42611486  0.34975907     0.38260
C792        C  0.26785529  0.60663334  0.29416301     0.38250
C793        C  0.18152362  0.57995769  0.22493062     0.36670
C794        C  0.22244761  0.46203322  0.42084528     0.36670
N795        N  0.17468061  0.60973779  0.18796872    -0.38150
N796        N  0.21413037  0.45197508  0.46695383    -0.38150
N797        N  0.27292383  0.65079214  0.27708648    -0.37590
N798        N  0.10635196  0.39190858  0.36381437    -0.37600
C799        C  0.97960715  0.77528112  0.16523492    -0.04260
C800        C  0.93327265  0.75638910  0.20000589    -0.01380
C801        C  0.93446043  0.70366629  0.22690856     0.03610
C802        C  0.97899579  0.66604861  0.21825357    -0.04260
C803        C  0.01662682  0.67807027  0.17494600    -0.01370
C804        C  0.01901924  0.73176680  0.15260961     0.03610
C805        C  0.88861796  0.79206421  0.22076387     0.38260
C806        C  0.05131304  0.63346561  0.14923103     0.38250
C807        C  0.06634700  0.73799556  0.11919343     0.36670
C808        C  0.88880506  0.68790336  0.26340035     0.36670
N809        N  0.10554180  0.72841667  0.09309862    -0.38150
N810        N  0.85121395  0.67726744  0.29165530    -0.38150
N811        N  0.07604982  0.59840133  0.12582168    -0.37590
N812        N  0.85345987  0.81252053  0.24773953    -0.37600
C813        C  0.99427587  0.33114595  0.20321411    -0.04260
C814        C  0.99325922  0.31429510  0.14539413    -0.01380
C815        C  0.99350941  0.25674489  0.12898273     0.03610
C816        C  0.98606681  0.21360834  0.16897721    -0.04260
C817        C  0.96717020  0.23838409  0.22205640    -0.01370
C818        C  0.98645838  0.28985204  0.24187993     0.03610
C819        C  0.98944643  0.35533382  0.10132023     0.38260
C820        C  0.90933405  0.23356414  0.24001340     0.38250
C821        C  0.97554236  0.30761220  0.29892767     0.36670
C822        C  0.00385405  0.24675740  0.07090636     0.36670
N823        N  0.96415199  0.32819201  0.34142571    -0.38150
N824        N  0.01625407  0.24497844  0.02430124    -0.38150
N825        N  0.86291491  0.23672913  0.25481157    -0.37590
N826        N  0.98567678  0.38719651  0.06567210    -0.37600
C827        C  0.81464211  0.49508328  0.25856611    -0.04260
C828        C  0.78242987  0.54436258  0.26044230    -0.01380
C829        C  0.73458167  0.55078416  0.29684702     0.03610
C830        C  0.71659230  0.50748719  0.33419832    -0.04260
C831        C  0.75876278  0.46445042  0.33890015    -0.01370
C832        C  0.80052928  0.45457543  0.29721339     0.03610
C833        C  0.79500202  0.58616351  0.21946972     0.38260
C834        C  0.76796898  0.43440653  0.38887584     0.38250
C835        C  0.83083781  0.40178935  0.29421816     0.36670
C836        C  0.69926777  0.59810021  0.28532176     0.36670
N837        N  0.85432431  0.35958382  0.28928700    -0.38150
N838        N  0.67341727  0.63506354  0.26809207    -0.38150
N839        N  0.78422760  0.41101412  0.42743503    -0.37590
N840        N  0.80384296  0.61896229  0.18598003    -0.37600
C841        C  0.01751022  0.67059626  0.75655987    -0.04260
C842        C  0.97295587  0.70826413  0.75454309    -0.01380
C843        C  0.96814913  0.75291473  0.79375002     0.03610
C844        C  0.01490778  0.77445620  0.82499005    -0.04260
C845        C  0.06315429  0.73635450  0.82188536    -0.01370
C846        C  0.06258301  0.68476814  0.79112142     0.03610
C847        C  0.93166587  0.69847210  0.71147480     0.38260
C848        C  0.11645494  0.74674010  0.84657697     0.38250
C849        C  0.11197378  0.64823726  0.78910849     0.36670
C850        C  0.91243503  0.76195322  0.81243398     0.36670
N851        N  0.15233117  0.62061074  0.78657952    -0.38150
N852        N  0.86573151  0.76234921  0.82451299    -0.38150
N853        N  0.16258045  0.74328488  0.86135374    -0.37590
N854        N  0.90284626  0.68598998  0.67469150    -0.37600
C855        C  0.01770893  0.23428543  0.86260323    -0.04260
C856        C  0.06184733  0.26201199  0.83304593    -0.01380
C857        C  0.04974082  0.30620230  0.79569768     0.03610
C858        C  0.00011624  0.33767745  0.80097917    -0.04260
C859        C  0.96597538  0.32504738  0.84720933    -0.01370
C860        C  0.97327718  0.27365605  0.87656695     0.03610
C861        C  0.12045486  0.24731124  0.83686924     0.38260
C862        C  0.92414746  0.36638890  0.86626772     0.38250
C863        C  0.95063782  0.27763793  0.93140426     0.36670
C864        C  0.09168476  0.32297291  0.75570084     0.36670
N865        N  0.93200150  0.29318581  0.97334255    -0.38150
N866        N  0.12618708  0.33524956  0.72452553    -0.38150
N867        N  0.89247764  0.39978383  0.88302798    -0.37590
N868        N  0.16843193  0.24334945  0.82963235    -0.37600
C869        C  0.73587605  0.51695197  0.63900547    -0.04260
C870        C  0.77326909  0.47291184  0.62573023    -0.01380
C871        C  0.82077687  0.46205592  0.66176672     0.03610
C872        C  0.83270867  0.49969293  0.70699339    -0.04260
C873        C  0.80603188  0.55212212  0.70298574    -0.01370
C874        C  0.76888986  0.56240519  0.65747799     0.03610
C875        C  0.78627596  0.46940039  0.56704712     0.38260
C876        C  0.82960249  0.59807308  0.73387898     0.38250
C877        C  0.80032747  0.58997131  0.61496171     0.36670
C878        C  0.86761316  0.42881757  0.63922503     0.36670
N879        N  0.83195346  0.60707477  0.58324718    -0.38150
N880        N  0.90760451  0.40860414  0.61921875    -0.38150
N881        N  0.84882290  0.63253553  0.76129312    -0.37590
N882        N  0.80054871  0.46871709  0.52111607    -0.37600
C883        C  0.70426367  0.48735102  0.16784727    -0.04260
C884        C  0.66030789  0.52632868  0.18158215    -0.01380
C885        C  0.62748496  0.52211499  0.23148899     0.03610
C886        C  0.64124407  0.48287424  0.27406720    -0.04260
C887        C  0.67376065  0.43660030  0.25120563    -0.01370
C888        C  0.70589438  0.43961772  0.20076877     0.03610
C889        C  0.64426518  0.56902642  0.14169398     0.38260
C890        C  0.68781016  0.39048473  0.28546039     0.38250
C891        C  0.73948132  0.39165938  0.18332831     0.36670
C892        C  0.57539914  0.55292576  0.23067869     0.36670
N893        N  0.76400472  0.35065792  0.17407371    -0.38150
N894        N  0.53476983  0.57832412  0.22121627    -0.38150
N895        N  0.70669670  0.35605826  0.31290634    -0.37590
N896        N  0.62829628  0.60120755  0.10956691    -0.37600
C897        C  0.75489670  0.50409392  0.82765640    -0.04260
C898        C  0.74524390  0.45820051  0.79351983    -0.01380
C899        C  0.70407098  0.45991245  0.74987509     0.03610
C900        C  0.68142312  0.50994670  0.72559474    -0.04260
C901        C  0.69732436  0.55812190  0.75921928    -0.01370
C902        C  0.72945993  0.55368042  0.81041265     0.03610
C903        C  0.77838393  0.40794001  0.80229923     0.38260
C904        C  0.70123254  0.61266356  0.73728288     0.38250
C905        C  0.75315057  0.60206816  0.83685248     0.36670
C906        C  0.67384116  0.41029066  0.74857722     0.36670
N907        N  0.77802285  0.63959875  0.85274074    -0.38150
N908        N  0.65516150  0.36880728  0.76105173    -0.38150
N909        N  0.71890009  0.65568456  0.72727010    -0.37590
N910        N  0.80501304  0.36739932  0.80597692    -0.37600
C911        C  0.80005997  0.66009787  0.00242634    -0.04260
C912        C  0.77608929  0.69402853  0.96266127    -0.01380
C913        C  0.80429903  0.74183102  0.94344482     0.03610
C914        C  0.85144920  0.76749615  0.97401910    -0.04260
C915        C  0.87895582  0.72699729  0.00829903    -0.01370
C916        C  0.85292868  0.67655768  0.02460247     0.03610
C917        C  0.72007481  0.67949884  0.94277224     0.38260
C918        C  0.93681564  0.73050242  0.02248380     0.38250
C919        C  0.88056189  0.64291938  0.06717769     0.36670
C920        C  0.77769870  0.76311199  0.89433918     0.36670
N921        N  0.90293910  0.61630003  0.10083171    -0.38150
N922        N  0.75092973  0.76995961  0.85447400    -0.38150
N923        N  0.98287193  0.72620363  0.03719892    -0.37590
N924        N  0.67628919  0.66449909  0.92861334    -0.37600
C925        C  0.84296217  0.22087629  0.99518474    -0.04260
C926        C  0.84506715  0.25682554  0.04270136    -0.01380
C927        C  0.82168438  0.31106689  0.04275208     0.03610
C928        C  0.78294610  0.32765360  0.00070354    -0.04260
C929        C  0.78304916  0.29600740  0.95191789    -0.01370
C930        C  0.81765906  0.24752989  0.94792585     0.03610
C931        C  0.86203449  0.23801265  0.09517996     0.38260
C932        C  0.74577367  0.31216754  0.90644503     0.38250
C933        C  0.82841981  0.22694764  0.89412829     0.36670
C934        C  0.84231744  0.35083478  0.08382779     0.36670
N935        N  0.83887127  0.21189411  0.85000354    -0.38150
N936        N  0.86059295  0.38260110  0.11522247    -0.38150
N937        N  0.71380695  0.32356908  0.87164291    -0.37590
N938        N  0.86945833  0.22295020  0.13958782    -0.37600
C939        C  0.27114639  0.49762025  0.67137152    -0.04260
C940        C  0.24948847  0.45522392  0.70580335    -0.01380
C941        C  0.20122825  0.46460442  0.73940699     0.03610
C942        C  0.16565830  0.51002629  0.72951299    -0.04260
C943        C  0.17521837  0.53819224  0.67826142    -0.01370
C944        C  0.22857038  0.53367174  0.65037757     0.03610
C945        C  0.27921748  0.40384715  0.71049707     0.38260
C946        C  0.12596606  0.55173864  0.64426875     0.38250
C947        C  0.22649001  0.54096725  0.59059850     0.36670
C948        C  0.18491599  0.42602851  0.78239083     0.36670
N949        N  0.21970051  0.54425542  0.54291830    -0.38150
N950        N  0.16956772  0.39844427  0.81824173    -0.38150
N951        N  0.08675598  0.55447974  0.61546336    -0.37590
N952        N  0.30577892  0.36478242  0.71988594    -0.37600
C953        C  0.33560965  0.48156304  0.28202823    -0.04260
C954        C  0.36519196  0.50875758  0.24058223    -0.01380
C955        C  0.34012968  0.51831607  0.18725469     0.03610
C956        C  0.28745388  0.49381673  0.17168747    -0.04260
C957        C  0.26865551  0.45231918  0.20705914    -0.01370
C958        C  0.29494333  0.44344112  0.25971476     0.03610
C959        C  0.42561320  0.50131674  0.24195767     0.38260
C960        C  0.22431393  0.41586722  0.18898736     0.38250
C961        C  0.27388122  0.39820448  0.29138880     0.36670
C962        C  0.37434125  0.54682053  0.14680292     0.36670
N963        N  0.24941496  0.36274008  0.31122362    -0.38150
N964        N  0.40360066  0.56802894  0.11536531    -0.38150
N965        N  0.18963810  0.38474060  0.17795834    -0.37590
N966        N  0.47308342  0.48944898  0.24280854    -0.37600
C967        C  0.16747126  0.77209497  0.01478159    -0.04260
C968        C  0.21160081  0.74528058  0.04947913    -0.01380
C969        C  0.24442650  0.69930149  0.03052760     0.03610
C970        C  0.22282628  0.66447633  0.99051649    -0.04260
C971        C  0.16977215  0.67963582  0.96661416    -0.01370
C972        C  0.14302688  0.73253303  0.97771045     0.03610
C973        C  0.21734068  0.75163944  0.10906459     0.38260
C974        C  0.13951129  0.63797108  0.93450914     0.38250
C975        C  0.08460556  0.73620864  0.96222163     0.36670
C976        C  0.29390102  0.67940533  0.06121660     0.36670
N977        N  0.03928036  0.73295537  0.94477235    -0.38150
N978        N  0.33226211  0.65999882  0.08416919    -0.38150
N979        N  0.11473355  0.60449764  0.91045457    -0.37590
N980        N  0.23002614  0.74648553  0.15544571    -0.37600
C981        C  0.21234772  0.33333567  0.00503246    -0.04260
C982        C  0.16435539  0.32049198  0.03698448    -0.01380
C983        C  0.14804615  0.26485365  0.04236194     0.03610
C984        C  0.16766325  0.22318723  0.00351632    -0.04260
C985        C  0.20354055  0.24370562  0.96001044    -0.01370
C986        C  0.23173305  0.29428003  0.96643665     0.03610
C987        C  0.13390789  0.36400717  0.06785242     0.38260
C988        C  0.22590625  0.20673982  0.91828258     0.38250
C989        C  0.28596431  0.30221709  0.94033164     0.36670
C990        C  0.12478101  0.25326382  0.09587503     0.36670
N991        N  0.33115053  0.30644267  0.92295569    -0.38150
N992        N  0.10978364  0.25109285  0.14157755    -0.38150
N993        N  0.24648407  0.17573471  0.88732404    -0.37590
N994        N  0.10967984  0.39959689  0.09094453    -0.37600
C995        C  0.27338265  0.50523519  0.83651507    -0.04260
C996        C  0.30839518  0.46232278  0.81518738    -0.01380
C997        C  0.35047467  0.47178980  0.77489083     0.03610
C998        C  0.34396362  0.51727183  0.73797392    -0.04260
C999        C  0.31319031  0.56313434  0.76461718    -0.01370
C1000       C  0.28231402  0.55739505  0.81511166     0.03610
C1001       C  0.29795977  0.40709283  0.83322640     0.38260
C1002       C  0.30742700  0.61737959  0.74305625     0.38250
C1003       C  0.26232721  0.60594747  0.84627180     0.36670
C1004       C  0.40476629  0.45826875  0.79748964     0.36670
N1005       N  0.24848195  0.64652092  0.86892544    -0.38150
N1006       N  0.44426264  0.44732620  0.82367203    -0.38150
N1007       N  0.29409862  0.66349337  0.73968802    -0.37590
N1008       N  0.28101354  0.36404747  0.84327659    -0.37600
loop_ 
_geom_bond_atom_site_label_1 
_geom_bond_atom_site_label_2 
_geom_bond_distance 
_geom_bond_site_symmetry_2 
_ccdc_geom_bond_type 
O1           Cu9   1.845       .  S
O1           C11   1.247   1_554  A
O2           Cu9   1.859   1_556  S
O2           C12   1.247   1_556  A
O3           Cu9   2.159       .  S
O3           C13   1.302       .  A
O4           Cu9   2.141   1_556  S
O4           C14   1.298       .  A
O5          Cu10   1.820   1_556  S
O5           C14   1.244       .  A
O6          Cu10   1.864       .  S
O6           C13   1.246       .  A
O7          Cu10   2.110       .  S
O7           C12   1.296       .  A
O8          Cu10   2.125   1_556  S
O8           C11   1.299       .  A
Cu9         Cu10   2.323       .  S
C11         C970   1.488       .  S
C12         C981   1.483       .  S
C13         C956   1.516       .  S
C14         C995   1.483       .  S
C15         C267   1.630       .  S
C15         C303   1.618       .  S
C15         C939   1.600       .  S
C15         C998   1.625       .  S
O16         Cu24   1.891   1_554  S
O16          C26   1.251       .  A
O17         Cu24   1.905       .  S
O17          C27   1.252       .  A
O18         Cu24   2.114       .  S
O18          C28   1.295       .  A
O19         Cu24   2.150       .  S
O19          C29   1.306   1_556  A
O20         Cu25   1.862       .  S
O20          C29   1.243       .  A
O21         Cu25   1.824   1_556  S
O21          C28   1.242       .  A
O22         Cu25   2.176   1_556  S
O22          C27   1.304       .  A
O23         Cu25   2.188       .  S
O23          C26   1.305       .  A
Cu24        Cu25   2.344   1_556  S
C26         C883   1.526       .  S
C27         C897   1.513       .  S
C28         C928   1.472   1_556  S
C29         C911   1.522       .  S
C30         C314   1.674       .  S
C30         C330   1.631       .  S
C30         C869   1.622       .  S
C30         C900   1.648       .  S
O31         Cu39   2.130   1_455  S
O31          C41   1.297       .  A
O32         Cu39   2.128       .  S
O32          C42   1.296       .  A
O33         Cu39   1.919   1_455  S
O33          C43   1.258   1_455  A
O34         Cu39   1.912       .  S
O34          C44   1.256   1_655  A
O35         Cu40   2.151       .  S
O35          C44   1.297       .  A
O36         Cu40   2.116   1_655  S
O36          C43   1.296       .  A
O37         Cu40   1.851   1_655  S
O37          C42   1.248       .  A
O38         Cu40   1.830       .  S
O38          C41   1.243       .  A
Cu39        Cu40   2.309   1_655  S
C41         C942   1.484       .  S
C42         C872   1.492       .  S
C43         C858   1.500   1_655  S
C44         C841   1.502       .  S
O45         Cu53   2.126       .  S
O45          C55   1.295       .  A
O46         Cu53   2.140       .  S
O46          C56   1.305       .  A
O47         Cu53   1.886   1_455  S
O47          C57   1.249       .  A
O48         Cu53   1.871       .  S
O48          C58   1.249       .  A
O49         Cu54   2.149       .  S
O49          C58   1.300       .  A
O50         Cu54   2.187   1_455  S
O50          C57   1.306       .  A
O51         Cu54   1.861   1_455  S
O51          C56   1.241   1_455  A
O52         Cu54   1.839       .  S
O52          C55   1.243       .  A
Cu53        Cu54   2.331       .  S
C55         C802   1.489       .  S
C56         C813   1.526       .  S
C57         C785   1.527       .  S
C58         C827   1.496       .  S
C59         C276   1.683       .  S
C59         C321   1.669       .  S
C59         C830   1.640       .  S
C59         C886   1.649       .  S
C60         C283   1.671       .  S
C60         C292   1.661       .  S
C60         C788   1.646       .  S
C60         C953   1.610       .  S
O61         Cu69   2.164       .  S
O61          C71   1.306       .  A
O62         Cu69   2.167   1_554  S
O62          C72   1.303       .  A
O63         Cu69   1.824   1_554  S
O63          C73   1.238       .  A
O64         Cu69   1.850       .  S
O64          C74   1.240   1_556  A
O65         Cu70   2.178       .  S
O65          C74   1.307       .  A
O66         Cu70   2.157       .  S
O66          C73   1.304       .  A
O67         Cu70   1.853       .  S
O67          C72   1.243       .  A
O68         Cu70   1.886   1_556  S
O68          C71   1.244       .  A
Cu69        Cu70   2.344   1_556  S
C71         C746   1.505       .  S
C72         C729   1.494       .  S
C73         C771   1.495       .  S
C74         C757   1.500       .  S
C75         C305   1.617       .  S
C75         C332   1.669       .  S
C75         C715   1.675       .  S
C75         C743   1.634       .  S
O76         Cu84   1.880       .  S
O76          C86   1.249       .  A
O77         Cu84   1.909   1_545  S
O77          C87   1.251       .  A
O78         Cu84   2.149       .  S
O78          C88   1.300       .  A
O79         Cu84   2.176       .  S
O79          C89   1.306   1_565  A
O80         Cu85   1.870       .  S
O80          C89   1.246       .  A
O81         Cu85   1.911   1_565  S
O81          C88   1.251       .  A
O82         Cu85   2.137       .  S
O82          C87   1.302       .  A
O83         Cu85   2.136   1_565  S
O83          C86   1.298       .  A
Cu84        Cu85   2.300   1_565  S
C86         C718   1.502       .  S
C87         C673   1.502       .  S
C88         C687   1.503       .  S
C89         C701   1.509   1_545  S
O90         Cu98   2.173       .  S
O90         C100   1.303       .  A
O91         Cu98   2.154   1_556  S
O91         C101   1.301       .  A
O92         Cu98   1.875   1_556  S
O92         C102   1.250       .  A
O93         Cu98   1.853       .  S
O93         C103   1.247       .  A
O94         Cu99   2.103       .  S
O94         C103   1.296       .  A
O95         Cu99   2.130   1_556  S
O95         C102   1.301       .  A
O96         Cu99   1.803       .  S
O96         C101   1.241   1_554  A
O97         Cu99   1.872       .  S
O97         C100   1.250       .  A
Cu98        Cu99   2.345       .  S
C100        C648   1.524       .  S
C101        C631   1.476       .  S
C102        C659   1.503       .  S
C103        C620   1.473       .  S
C104        C269   1.642       .  S
C104        C312   1.667       .  S
C104        C662   1.640       .  S
C104        C676   1.654       .  S
O105       Cu113   1.812       .  S
O105        C115   1.237       .  A
O106       Cu113   1.836   1_545  S
O106        C116   1.242       .  A
O107       Cu113   2.166       .  S
O107        C117   1.306       .  A
O108       Cu113   2.150   1_545  S
O108        C118   1.300       .  A
O109       Cu114   1.836       .  S
O109        C118   1.243       .  A
O110       Cu114   1.843   1_565  S
O110        C117   1.242       .  A
O111       Cu114   2.180       .  S
O111        C116   1.304       .  A
O112       Cu114   2.171   1_565  S
O112        C115   1.305       .  A
Cu113      Cu114   2.348   1_565  S
C115        C589   1.510       .  S
C116        C578   1.502       .  S
C117        C606   1.507       .  S
C118        C561   1.490       .  S
C119        C285   1.666       .  S
C119        C319   1.664       .  S
C119        C603   1.657       .  S
C119        C732   1.625       .  S
C120        C274   1.677       .  S
C120        C294   1.643       .  S
C120        C564   1.631       .  S
C120        C617   1.637       .  S
O121       Cu129   2.149   1_565  S
O121        C131   1.304       .  A
O122       Cu129   2.146       .  S
O122        C132   1.302       .  A
O123       Cu129   1.903       .  S
O123        C133   1.250       .  A
O124       Cu129   1.890   1_565  S
O124        C134   1.248       .  A
O125       Cu130   2.181   1_565  S
O125        C134   1.307       .  A
O126       Cu130   2.187       .  S
O126        C133   1.307       .  A
O127       Cu130   1.799       .  S
O127        C132   1.233       .  A
O128       Cu130   1.784   1_565  S
O128        C131   1.232       .  A
Cu129      Cu130   2.356       .  S
C131        C522   1.478       .  S
C132        C533   1.500       .  S
C133        C505   1.518       .  S
C134        C550   1.512       .  S
C135        C287   1.623       .  S
C135        C301   1.638       .  S
C135        C494   1.601       .  S
C135        C547   1.640       .  S
O136       Cu144   2.130       .  S
O136        C146   1.296       .  A
O137       Cu144   2.134   1_545  S
O137        C147   1.305       .  A
O138       Cu144   1.933   1_545  S
O138        C148   1.255   1_545  A
O139       Cu144   1.889       .  S
O139        C149   1.251       .  A
O140       Cu145   2.133       .  S
O140        C149   1.298       .  A
O141       Cu145   2.188       .  S
O141        C148   1.306       .  A
O142       Cu145   1.856   1_545  S
O142        C147   1.244       .  A
O143       Cu145   1.831       .  S
O143        C146   1.244       .  A
Cu144      Cu145   2.343       .  S
C146        C449   1.484       .  S
C147        C435   1.506       .  S
C148        C466   1.531       .  S
C149        C477   1.488       .  S
C150        C323   1.657       .  S
C150        C328   1.639       .  S
C150        C421   1.647       .  S
C150        C452   1.609       .  S
O151       Cu159   1.882       .  S
O151        C161   1.251       .  A
O152       Cu159   1.857   1_655  S
O152        C162   1.246       .  A
O153       Cu159   2.117   1_655  S
O153        C163   1.293       .  A
O154       Cu159   2.178       .  S
O154        C164   1.299       .  A
O155       Cu160   1.833       .  S
O155        C164   1.243       .  A
O156       Cu160   1.804       .  S
O156        C163   1.241   1_455  A
O157       Cu160   2.182   1_655  S
O157        C162   1.306       .  A
O158       Cu160   2.109       .  S
O158        C161   1.292       .  A
Cu159      Cu160   2.334       .  S
C161        C491   1.483       .  S
C162        C424   1.509       .  S
C163        C410   1.475       .  S
C164        C396   1.508       .  S
O165       Cu173   1.877       .  S
O165        C175   1.244       .  A
O166       Cu173   1.848       .  S
O166        C176   1.241       .  A
O167       Cu173   2.180   1_655  S
O167        C177   1.309       .  A
O168       Cu173   2.169       .  S
O168        C178   1.303       .  A
O169       Cu174   1.793       .  S
O169        C178   1.235       .  A
O170       Cu174   1.820   1_655  S
O170        C177   1.235       .  A
O171       Cu174   2.161       .  S
O171        C176   1.303       .  A
O172       Cu174   2.121       .  S
O172        C175   1.297       .  A
Cu173      Cu174   2.366       .  S
C175        C365   1.495       .  S
C176        C354   1.492       .  S
C177        C382   1.498       .  S
C178        C337   1.491       .  S
C179        C278   1.694       .  S
C179        C310   1.620       .  S
C179        C379   1.625       .  S
C179        C438   1.676       .  S
C180        C265   1.648       .  S
C180        C296   1.682       .  S
C180        C340   1.630       .  S
C180        C508   1.656       .  S
C181        C195   1.645       .  S
C181        C258   1.666   1_655  S
C181        C368   1.641   1_655  S
C181        C816   1.671       .  S
C182        C193   1.630   1_565  S
C182        C220   1.635       .  S
C182        C480   1.611       .  S
C182        C575   1.624   1_565  S
C183        C202   1.654   1_655  S
C183        C222   1.647       .  S
C183        C407   1.618   1_655  S
C183        C799   1.633       .  S
C184        C206   1.652       .  S
C184        C260   1.622   1_565  S
C184        C536   1.611   1_565  S
C184        C592   1.614       .  S
C185        C231   1.646       .  S
C185        C249   1.665   1_455  S
C185        C393   1.621       .  S
C185        C844   1.646       .  S
C186        C211   1.674   1_565  S
C186        C233   1.666       .  S
C186        C519   1.613       .  S
C186        C704   1.666   1_565  S
C187        C215   1.681       .  S
C187        C240   1.674   1_455  S
C187        C351   1.634       .  S
C187        C855   1.650       .  S
C188        C242   1.678       .  S
C188        C251   1.676   1_545  S
C188        C463   1.657   1_545  S
C188        C690   1.644   1_545  S
C189        C213   1.684   1_554  S
C189        C256   1.628       .  S
C189        C645   1.670       .  S
C189        C984   1.603       .  S
C190        C204   1.631       .  S
C190        C229   1.662   1_554  S
C190        C760   1.621       .  S
C190        C967   1.651       .  S
C191        C197   1.616   1_556  S
C191        C238   1.635       .  S
C191        C634   1.608   1_556  S
C191        C925   1.612       .  S
C192        C224   1.657   1_556  S
C192        C247   1.681       .  S
C192        C774   1.610   1_556  S
C192        C914   1.678       .  S
C193        C194   1.457       .  A
C193        C198   1.427       .  A
C194        C195   1.453       .  A
C194        H199   1.071       .  S
C195        C196   1.443       .  A
C196        C197   1.432       .  A
C196        H200   1.062       .  S
C197        C198   1.424       .  A
C198        H201   1.079       .  S
C202        C203   1.447       .  A
C202        C207   1.456       .  A
C203        C204   1.443       .  A
C203        H208   1.078       .  S
C204        C205   1.429       .  A
C205        C206   1.441       .  A
C205        H209   1.056       .  S
C206        C207   1.437       .  A
C207        H210   1.049       .  S
C211        C212   1.458       .  A
C211        C216   1.459       .  A
C212        C213   1.458       .  A
C212        H217   1.067       .  S
C213        C214   1.467       .  A
C214        C215   1.455       .  A
C214        H218   1.078       .  S
C215        C216   1.454       .  A
C216        H219   1.063       .  S
C220        C221   1.446       .  A
C220        C225   1.436       .  A
C221        C222   1.441       .  A
C221        H226   1.069       .  S
C222        C223   1.447       .  A
C223        C224   1.441       .  A
C223        H227   1.055       .  S
C224        C225   1.455       .  A
C225        H228   1.079       .  S
C229        C230   1.444       .  A
C229        C234   1.470       .  A
C230        C231   1.438       .  A
C230        H235   1.064       .  S
C231        C232   1.442       .  A
C232        C233   1.455       .  A
C232        H236   1.077       .  S
C233        C234   1.453       .  A
C234        H237   1.073       .  S
C238        C239   1.449       .  A
C238        C243   1.447       .  A
C239        C240   1.435       .  A
C239        H244   1.072       .  S
C240        C241   1.476       .  A
C241        C242   1.475       .  A
C241        H245   1.078       .  S
C242        C243   1.451       .  A
C243        H246   1.078       .  S
C247        C248   1.462       .  A
C247        C252   1.466       .  A
C248        C249   1.464       .  A
C248        H253   1.081       .  S
C249        C250   1.450       .  A
C250        C251   1.443       .  A
C250        H254   1.067       .  S
C251        C252   1.467       .  A
C252        H255   1.068       .  S
C256        C257   1.441       .  A
C256        C261   1.431       .  A
C257        C258   1.445       .  A
C257        H262   1.040       .  S
C258        C259   1.432       .  A
C259        C260   1.445       .  A
C259        H263   1.069       .  S
C260        C261   1.435       .  A
C261        H264   1.059       .  S
C265        C266   1.440       .  A
C265        C270   1.449       .  A
C266        C267   1.454       .  A
C266        H271   1.074       .  S
C267        C268   1.442       .  A
C268        C269   1.440       .  A
C268        H272   1.077       .  S
C269        C270   1.458       .  A
C270        H273   1.079       .  S
C274        C275   1.450       .  A
C274        C279   1.458       .  A
C275        C276   1.448       .  A
C275        H280   1.080       .  S
C276        C277   1.471       .  A
C277        C278   1.476       .  A
C277        H281   1.075       .  S
C278        C279   1.462       .  A
C279        H282   1.066       .  S
C283        C284   1.477       .  A
C283        C288   1.439       .  A
C284        C285   1.466       .  A
C284        H289   1.057       .  S
C285        C286   1.436       .  A
C286        C287   1.443       .  A
C286        H290   1.075       .  S
C287        C288   1.439       .  A
C288        H291   1.081       .  S
C292        C293   1.446       .  A
C292        C297   1.456       .  A
C293        C294   1.425       .  A
C293        H298   1.062       .  S
C294        C295   1.460       .  A
C295        C296   1.457       .  A
C295        H299   1.072       .  S
C296        C297   1.464       .  A
C297        H300   1.070       .  S
C301        C302   1.436       .  A
C301        C306   1.427       .  A
C302        C303   1.443       .  A
C302        H307   1.065       .  S
C303        C304   1.435       .  A
C304        C305   1.432       .  A
C304        H308   1.077       .  S
C305        C306   1.436       .  A
C306        H309   1.061       .  S
C310        C311   1.421       .  A
C310        C315   1.445       .  A
C311        C312   1.423       .  A
C311        H316   1.059       .  S
C312        C313   1.465       .  A
C313        C314   1.465       .  A
C313        H317   1.060       .  S
C314        C315   1.447       .  A
C315        H318   1.070       .  S
C319        C320   1.458       .  A
C319        C324   1.441       .  A
C320        C321   1.454       .  A
C320        H325   1.069       .  S
C321        C322   1.454       .  A
C322        C323   1.451       .  A
C322        H326   1.069       .  S
C323        C324   1.449       .  A
C324        H327   1.062       .  S
C328        C329   1.430       .  A
C328        C333   1.457       .  A
C329        C330   1.433       .  A
C329        H334   1.077       .  S
C330        C331   1.444       .  A
C331        C332   1.466       .  A
C331        H335   1.080       .  S
C332        C333   1.456       .  A
C333        H336   1.076       .  S
C337        C338   1.402       .  A
C337        C342   1.418       .  A
C338        C339   1.417       .  A
C338        C343   1.452       .  S
C339        C340   1.431       .  A
C339        C346   1.390       .  S
C340        C341   1.424       .  A
C341        C342   1.435       .  A
C341        C344   1.413       .  S
C342        C345   1.461       .  S
C343        N350   1.156       .  T
C344        N349   1.147       .  T
C345        N347   1.156       .  T
C346        N348   1.136       .  T
C351        C352   1.447   1_455  A
C351        C356   1.437       .  A
C352        C353   1.399       .  A
C352        C357   1.432       .  S
C353        C354   1.394   1_655  A
C353        C360   1.438       .  S
C354        C355   1.402       .  A
C355        C356   1.435       .  A
C355        C358   1.439       .  S
C356        C359   1.401       .  S
C357        N364   1.159       .  T
C358        N363   1.151       .  T
C359        N361   1.141       .  T
C360        N362   1.151       .  T
C365        C366   1.407   1_455  A
C365        C370   1.403       .  A
C366        C367   1.434       .  A
C366        C371   1.461       .  S
C367        C368   1.440   1_655  A
C367        C374   1.421       .  S
C368        C369   1.442       .  A
C369        C370   1.416       .  A
C369        C372   1.415       .  S
C370        C373   1.450       .  S
C371        N378   1.157       .  T
C372        N377   1.146       .  T
C373        N375   1.157       .  T
C374        N376   1.151       .  T
C379        C380   1.453       .  A
C379        C384   1.459       .  A
C380        C381   1.415       .  A
C380        C385   1.424       .  S
C381        C382   1.384       .  A
C381        C388   1.446       .  S
C382        C383   1.404       .  A
C383        C384   1.441       .  A
C383        C386   1.452       .  S
C384        C387   1.438       .  S
C385        N392   1.156       .  T
C386        N391   1.157       .  T
C387        N389   1.156       .  T
C388        N390   1.151       .  T
C393        C394   1.429       .  A
C393        C398   1.411   1_455  A
C394        C395   1.420       .  A
C394        C399   1.427       .  S
C395        C396   1.402       .  A
C395        C402   1.443       .  S
C396        C397   1.432   1_455  A
C397        C398   1.429       .  A
C397        C400   1.459       .  S
C398        C401   1.440       .  S
C399        N406   1.152       .  T
C400        N405   1.157       .  T
C401        N403   1.155       .  T
C402        N404   1.156       .  T
C407        C408   1.442       .  A
C407        C412   1.412   1_455  A
C408        C409   1.416       .  A
C408        C413   1.421       .  S
C409        C410   1.391   1_455  A
C409        C416   1.449       .  S
C410        C411   1.423       .  A
C411        C412   1.416       .  A
C411        C414   1.465       .  S
C412        C415   1.402       .  S
C413        N420   1.147       .  T
C414        N419   1.158       .  T
C415        N417   1.143       .  T
C416        N418   1.158       .  T
C421        C422   1.460       .  A
C421        C426   1.425       .  A
C422        C423   1.429       .  A
C422        C427   1.434       .  S
C423        C424   1.392       .  A
C423        C430   1.448       .  S
C424        C425   1.421       .  A
C425        C426   1.434       .  A
C425        C428   1.455       .  S
C426        C429   1.420       .  S
C427        N434   1.155       .  T
C428        N433   1.157       .  T
C429        N431   1.150       .  T
C430        N432   1.154       .  T
C435        C436   1.435       .  A
C435        C440   1.380       .  A
C436        C437   1.442       .  A
C436        C441   1.453       .  S
C437        C438   1.423       .  A
C437        C444   1.439       .  S
C438        C439   1.461       .  A
C439        C440   1.406       .  A
C439        C442   1.440       .  S
C440        C443   1.451       .  S
C441        N448   1.157       .  T
C442        N447   1.159       .  T
C443        N445   1.155       .  T
C444        N446   1.156       .  T
C449        C450   1.416       .  A
C449        C454   1.395       .  A
C450        C451   1.415       .  A
C450        C455   1.466       .  S
C451        C452   1.421       .  A
C451        C458   1.414       .  S
C452        C453   1.452       .  A
C453        C454   1.424       .  A
C453        C456   1.442       .  S
C454        C457   1.447       .  S
C455        N462   1.157       .  T
C456        N461   1.154       .  T
C457        N459   1.155       .  T
C458        N460   1.146       .  T
C463        C464   1.437   1_565  A
C463        C468   1.460       .  A
C464        C465   1.435       .  A
C464        C469   1.409       .  S
C465        C466   1.391   1_545  A
C465        C472   1.431       .  S
C466        C467   1.392       .  A
C467        C468   1.444       .  A
C467        C470   1.441       .  S
C468        C471   1.422       .  S
C469        N476   1.144       .  T
C470        N475   1.152       .  T
C471        N473   1.151       .  T
C472        N474   1.147       .  T
C477        C478   1.404       .  A
C477        C482   1.403   1_565  A
C478        C479   1.427       .  A
C478        C483   1.448       .  S
C479        C480   1.442       .  A
C479        C486   1.435       .  S
C480        C481   1.431   1_565  A
C481        C482   1.423       .  A
C481        C484   1.414       .  S
C482        C485   1.457       .  S
C483        N490   1.156       .  T
C484        N489   1.147       .  T
C485        N487   1.157       .  T
C486        N488   1.152       .  T
C491        C492   1.404       .  A
C491        C496   1.412       .  A
C492        C493   1.399       .  A
C492        C497   1.441       .  S
C493        C494   1.419       .  A
C493        C500   1.399       .  S
C494        C495   1.434       .  A
C495        C496   1.429       .  A
C495        C498   1.434       .  S
C496        C499   1.444       .  S
C497        N504   1.150       .  T
C498        N503   1.155       .  T
C499        N501   1.156       .  T
C500        N502   1.140       .  T
C505        C506   1.408       .  A
C505        C510   1.398       .  A
C506        C507   1.429       .  A
C506        C511   1.438       .  S
C507        C508   1.432       .  A
C507        C514   1.433       .  S
C508        C509   1.471       .  A
C509        C510   1.435       .  A
C509        C512   1.434       .  S
C510        C513   1.448       .  S
C511        N518   1.154       .  T
C512        N517   1.155       .  T
C513        N515   1.155       .  T
C514        N516   1.156       .  T
C519        C520   1.463       .  A
C519        C524   1.418   1_565  A
C520        C521   1.393       .  A
C520        C525   1.438       .  S
C521        C522   1.386       .  A
C521        C528   1.450       .  S
C522        C523   1.423   1_565  A
C523        C524   1.421       .  A
C523        C526   1.453       .  S
C524        C527   1.433       .  S
C525        N532   1.160       .  T
C526        N531   1.157       .  T
C527        N529   1.155       .  T
C528        N530   1.158       .  T
C533        C534   1.441   1_545  A
C533        C538   1.391       .  A
C534        C535   1.412   1_565  A
C534        C539   1.457       .  S
C535        C536   1.399       .  A
C535        C542   1.426   1_545  S
C536        C537   1.456       .  A
C537        C538   1.417       .  A
C537        C540   1.441       .  S
C538        C541   1.448       .  S
C539        N546   1.158       .  T
C540        N545   1.154       .  T
C541        N543   1.157       .  T
C542        N544   1.151       .  T
C547        C548   1.436       .  A
C547        C552   1.436       .  A
C548        C549   1.429       .  A
C548        C553   1.407       .  S
C549        C550   1.398       .  A
C549        C556   1.446       .  S
C550        C551   1.414       .  A
C551        C552   1.429       .  A
C551        C554   1.452       .  S
C552        C555   1.421       .  S
C553        N560   1.146       .  T
C554        N559   1.158       .  T
C555        N557   1.148       .  T
C556        N558   1.154       .  T
C561        C562   1.405       .  A
C561        C566   1.398       .  A
C562        C563   1.417       .  A
C562        C567   1.461       .  S
C563        C564   1.409       .  A
C563        C570   1.386       .  S
C564        C565   1.460       .  A
C565        C566   1.432       .  A
C565        C568   1.436       .  S
C566        C569   1.447       .  S
C567        N574   1.157       .  T
C568        N573   1.157       .  T
C569        N571   1.153       .  T
C570        N572   1.136       .  T
C575        C576   1.426       .  A
C575        C580   1.422   1_545  A
C576        C577   1.433       .  A
C576        C581   1.446       .  S
C577        C578   1.422       .  A
C577        C584   1.449       .  S
C578        C579   1.425   1_545  A
C579        C580   1.430       .  A
C579        C582   1.446       .  S
C580        C583   1.434       .  S
C581        N588   1.156       .  T
C582        N587   1.152       .  T
C583        N585   1.154       .  T
C584        N586   1.157       .  T
C589        C590   1.397       .  A
C589        C594   1.437   1_565  A
C590        C591   1.423       .  A
C590        C595   1.448       .  S
C591        C592   1.459       .  A
C591        C598   1.446       .  S
C592        C593   1.400       .  A
C593        C594   1.410   1_565  A
C593        C596   1.424       .  S
C594        C597   1.457       .  S
C595        N602   1.157       .  T
C596        N601   1.149       .  T
C597        N599   1.158       .  T
C598        N600   1.155       .  T
C603        C604   1.464       .  A
C603        C608   1.432       .  A
C604        C605   1.431       .  A
C604        C609   1.432       .  S
C605        C606   1.392       .  A
C605        C612   1.457       .  S
C606        C607   1.423       .  A
C607        C608   1.437       .  A
C607        C610   1.456       .  S
C608        C611   1.434       .  S
C609        N616   1.158       .  T
C610        N615   1.157       .  T
C611        N613   1.154       .  T
C612        N614   1.154       .  T
C617        C618   1.440       .  A
C617        C622   1.457       .  A
C618        C619   1.424       .  A
C618        C623   1.426       .  S
C619        C620   1.389       .  A
C619        C626   1.447       .  S
C620        C621   1.413       .  A
C621        C622   1.403       .  A
C621        C624   1.444       .  S
C622        C625   1.426       .  S
C623        N630   1.153       .  T
C624        N629   1.157       .  T
C625        N627   1.156       .  T
C626        N628   1.154       .  T
C631        C632   1.425       .  A
C631        C636   1.399   1_556  A
C632        C633   1.430       .  A
C632        C637   1.452       .  S
C633        C634   1.412   1_556  A
C633        C640   1.437       .  S
C634        C635   1.438       .  A
C635        C636   1.415       .  A
C635        C638   1.423       .  S
C636        C639   1.454       .  S
C637        N644   1.157       .  T
C638        N643   1.149       .  T
C639        N641   1.154       .  T
C640        N642   1.155       .  T
C645        C646   1.421   1_554  A
C645        C650   1.470       .  A
C646        C647   1.426       .  A
C646        C651   1.409       .  S
C647        C648   1.414   1_556  A
C647        C654   1.455       .  S
C648        C649   1.393       .  A
C649        C650   1.437       .  A
C649        C652   1.453       .  S
C650        C653   1.435       .  S
C651        N658   1.147       .  T
C652        N657   1.157       .  T
C653        N655   1.157       .  T
C654        N656   1.154       .  T
C659        C660   1.376       .  A
C659        C664   1.432       .  A
C660        C661   1.402       .  A
C660        C665   1.443       .  S
C661        C662   1.433       .  A
C661        C668   1.428       .  S
C662        C663   1.435       .  A
C663        C664   1.446       .  A
C663        C666   1.445       .  S
C664        C667   1.454       .  S
C665        N672   1.155       .  T
C666        N671   1.159       .  T
C667        N669   1.157       .  T
C668        N670   1.150       .  T
C673        C674   1.391       .  A
C673        C678   1.393       .  A
C674        C675   1.417       .  A
C674        C679   1.442       .  S
C675        C676   1.436       .  A
C675        C682   1.404       .  S
C676        C677   1.446       .  A
C677        C678   1.430       .  A
C677        C680   1.401       .  S
C678        C681   1.455       .  S
C679        N686   1.155       .  T
C680        N685   1.139       .  T
C681        N683   1.154       .  T
C682        N684   1.142       .  T
C687        C688   1.400   1_565  A
C687        C692   1.400       .  A
C688        C689   1.434       .  A
C688        C693   1.454       .  S
C689        C690   1.442   1_545  A
C689        C696   1.413       .  S
C690        C691   1.436       .  A
C691        C692   1.429       .  A
C691        C694   1.405       .  S
C692        C695   1.445       .  S
C693        N700   1.155       .  T
C694        N699   1.142       .  T
C695        N697   1.154       .  T
C696        N698   1.147       .  T
C701        C702   1.427       .  A
C701        C706   1.375   1_565  A
C702        C703   1.443       .  A
C702        C707   1.454       .  S
C703        C704   1.437   1_565  A
C703        C710   1.425       .  S
C704        C705   1.473       .  A
C705        C706   1.421       .  A
C705        C708   1.429       .  S
C706        C709   1.452       .  S
C707        N714   1.157       .  T
C708        N713   1.159       .  T
C709        N711   1.157       .  T
C710        N712   1.152       .  T
C715        C716   1.463       .  A
C715        C720   1.451       .  A
C716        C717   1.389       .  A
C716        C721   1.446       .  S
C717        C718   1.370       .  A
C717        C724   1.443       .  S
C718        C719   1.432       .  A
C719        C720   1.447       .  A
C719        C722   1.454       .  S
C720        C723   1.428       .  S
C721        N728   1.153       .  T
C722        N727   1.158       .  T
C723        N725   1.154       .  T
C724        N726   1.155       .  T
C729        C730   1.399       .  A
C729        C734   1.404       .  A
C730        C731   1.428       .  A
C730        C735   1.449       .  S
C731        C732   1.428       .  A
C731        C738   1.405       .  S
C732        C733   1.447       .  A
C733        C734   1.429       .  A
C733        C736   1.427       .  S
C734        C737   1.445       .  S
C735        N742   1.155       .  T
C736        N741   1.150       .  T
C737        N739   1.155       .  T
C738        N740   1.142       .  T
C743        C744   1.444       .  A
C743        C748   1.443       .  A
C744        C745   1.430       .  A
C744        C749   1.408       .  S
C745        C746   1.392       .  A
C745        C752   1.439       .  S
C746        C747   1.406       .  A
C747        C748   1.407       .  A
C747        C750   1.448       .  S
C748        C751   1.428       .  S
C749        N756   1.147       .  T
C750        N755   1.157       .  T
C751        N753   1.156       .  T
C752        N754   1.151       .  T
C757        C758   1.399   1_554  A
C757        C762   1.419       .  A
C758        C759   1.418       .  A
C758        C763   1.446       .  S
C759        C760   1.437   1_556  A
C759        C766   1.403       .  S
C760        C761   1.433       .  A
C761        C762   1.423       .  A
C761        C764   1.411       .  S
C762        C765   1.449       .  S
C763        N770   1.154       .  T
C764        N769   1.147       .  T
C765        N767   1.156       .  T
C766        N768   1.141       .  T
C771        C772   1.392       .  A
C771        C776   1.430   1_554  A
C772        C773   1.418       .  A
C772        C777   1.449       .  S
C773        C774   1.455       .  A
C773        C780   1.441       .  S
C774        C775   1.409   1_554  A
C775        C776   1.422       .  A
C775        C778   1.428       .  S
C776        C779   1.455       .  S
C777        N784   1.156       .  T
C778        N783   1.153       .  T
C779        N781   1.158       .  T
C780        N782   1.153       .  T
C785        C786   1.429       .  A
C785        C790   1.391       .  A
C786        C787   1.437       .  A
C786        C791   1.455       .  S
C787        C788   1.426       .  A
C787        C794   1.427       .  S
C788        C789   1.458       .  A
C789        C790   1.433       .  A
C789        C792   1.425       .  S
C790        C793   1.454       .  S
C791        N798   1.157       .  T
C792        N797   1.155       .  T
C793        N795   1.156       .  T
C794        N796   1.152       .  T
C799        C800   1.465       .  A
C799        C804   1.419   1_655  A
C800        C801   1.433       .  A
C800        C805   1.434       .  S
C801        C802   1.390       .  A
C801        C808   1.454       .  S
C802        C803   1.407   1_655  A
C803        C804   1.411       .  A
C803        C806   1.469       .  S
C804        C807   1.392       .  S
C805        N812   1.153       .  T
C806        N811   1.157       .  T
C807        N809   1.139       .  T
C808        N810   1.156       .  T
C813        C814   1.438       .  A
C813        C818   1.385       .  A
C814        C815   1.438       .  A
C814        C819   1.458       .  S
C815        C816   1.438       .  A
C815        C822   1.429   1_655  S
C816        C817   1.464       .  A
C817        C818   1.410       .  A
C817        C820   1.446       .  S
C818        C821   1.448       .  S
C819        N826   1.158       .  T
C820        N825   1.158       .  T
C821        N823   1.156       .  T
C822        N824   1.155       .  T
C827        C828   1.398       .  A
C827        C832   1.402       .  A
C828        C829   1.437       .  A
C828        C833   1.453       .  S
C829        C830   1.456       .  A
C829        C836   1.429       .  S
C830        C831   1.430       .  A
C831        C832   1.422       .  A
C831        C834   1.421       .  S
C832        C835   1.449       .  S
C833        N840   1.157       .  T
C834        N839   1.149       .  T
C835        N837   1.154       .  T
C836        N838   1.150       .  T
C841        C842   1.378   1_455  A
C841        C846   1.397       .  A
C842        C843   1.423       .  A
C842        C847   1.442       .  S
C843        C844   1.440   1_655  A
C843        C850   1.407       .  S
C844        C845   1.452       .  A
C845        C846   1.439       .  A
C845        C848   1.421       .  S
C846        C849   1.449       .  S
C847        N854   1.155       .  T
C848        N853   1.150       .  T
C849        N851   1.154       .  T
C850        N852   1.145       .  T
C855        C856   1.447       .  A
C855        C860   1.439   1_455  A
C856        C857   1.424       .  A
C856        C861   1.429       .  S
C857        C858   1.390       .  A
C857        C864   1.451       .  S
C858        C859   1.414   1_455  A
C859        C860   1.440       .  A
C859        C862   1.460       .  S
C860        C863   1.421       .  S
C861        N868   1.153       .  T
C862        N867   1.157       .  T
C863        N865   1.153       .  T
C864        N866   1.155       .  T
C869        C870   1.401       .  A
C869        C874   1.428       .  A
C870        C871   1.439       .  A
C870        C875   1.440       .  S
C871        C872   1.436       .  A
C871        C878   1.455       .  S
C872        C873   1.405       .  A
C873        C874   1.420       .  A
C873        C876   1.448       .  S
C874        C877   1.442       .  S
C875        N882   1.151       .  T
C876        N881   1.155       .  T
C877        N879   1.156       .  T
C878        N880   1.158       .  T
C883        C884   1.423       .  A
C883        C888   1.404       .  A
C884        C885   1.434       .  A
C884        C889   1.457       .  S
C885        C886   1.432       .  A
C885        C892   1.427       .  S
C886        C887   1.444       .  A
C887        C888   1.433       .  A
C887        C890   1.424       .  S
C888        C891   1.447       .  S
C889        N896   1.157       .  T
C890        N895   1.148       .  T
C891        N893   1.155       .  T
C892        N894   1.153       .  T
C897        C898   1.391       .  A
C897        C902   1.394       .  A
C898        C899   1.429       .  A
C898        C903   1.447       .  S
C899        C900   1.439       .  A
C899        C906   1.411       .  S
C900        C901   1.462       .  A
C901        C902   1.446       .  A
C901        C904   1.429       .  S
C902        C905   1.446       .  S
C903        N910   1.156       .  T
C904        N909   1.157       .  T
C905        N907   1.153       .  T
C906        N908   1.148       .  T
C911        C912   1.377   1_554  A
C911        C916   1.424       .  A
C912        C913   1.429       .  A
C912        C917   1.459       .  S
C913        C914   1.479       .  A
C913        C920   1.428       .  S
C914        C915   1.429   1_556  A
C915        C916   1.437       .  A
C915        C918   1.417       .  S
C916        C919   1.456       .  S
C917        N924   1.157       .  T
C918        N923   1.150       .  T
C919        N921   1.157       .  T
C920        N922   1.156       .  T
C925        C926   1.423   1_556  A
C925        C930   1.432       .  A
C926        C927   1.409       .  A
C926        C931   1.396       .  S
C927        C928   1.416       .  A
C927        C934   1.457       .  S
C928        C929   1.387   1_554  A
C929        C930   1.415       .  A
C929        C932   1.452       .  S
C930        C933   1.396       .  S
C931        N938   1.140       .  T
C932        N937   1.156       .  T
C933        N935   1.139       .  T
C934        N936   1.158       .  T
C939        C940   1.428       .  A
C939        C944   1.413       .  A
C940        C941   1.413       .  A
C940        C945   1.417       .  S
C941        C942   1.389       .  A
C941        C948   1.456       .  S
C942        C943   1.432       .  A
C943        C944   1.433       .  A
C943        C946   1.455       .  S
C944        C947   1.445       .  S
C945        N952   1.146       .  T
C946        N951   1.158       .  T
C947        N949   1.156       .  T
C948        N950   1.158       .  T
C953        C954   1.396       .  A
C953        C958   1.446       .  A
C954        C955   1.426       .  A
C954        C959   1.440       .  S
C955        C956   1.441       .  A
C955        C962   1.455       .  S
C956        C957   1.402       .  A
C957        C958   1.421       .  A
C957        C960   1.449       .  S
C958        C961   1.437       .  S
C959        N966   1.155       .  T
C960        N965   1.155       .  T
C961        N963   1.154       .  T
C962        N964   1.157       .  T
C967        C968   1.477       .  A
C967        C972   1.428   1_554  A
C968        C969   1.411       .  A
C968        C973   1.439       .  S
C969        C970   1.373   1_554  A
C969        C976   1.458       .  S
C970        C971   1.423       .  A
C971        C972   1.434       .  A
C971        C974   1.459       .  S
C972        C975   1.434       .  S
C973        N980   1.157       .  T
C974        N979   1.157       .  T
C975        N977   1.156       .  T
C976        N978   1.154       .  T
C981        C982   1.416       .  A
C981        C986   1.383   1_554  A
C982        C983   1.414       .  A
C982        C987   1.455       .  S
C983        C984   1.431       .  A
C983        C990   1.430       .  S
C984        C985   1.446   1_554  A
C985        C986   1.412       .  A
C985        C988   1.425       .  S
C986        C989   1.449       .  S
C987        N994   1.157       .  T
C988        N993   1.148       .  T
C989        N991   1.158       .  T
C990        N992   1.154       .  T
C995        C996   1.403       .  A
C995       C1000   1.386       .  A
C996        C997   1.414       .  A
C996       C1001   1.434       .  S
C997        C998   1.423       .  A
C997       C1004   1.428       .  S
C998        C999   1.452       .  A
C999       C1000   1.425       .  A
C999       C1002   1.417       .  S
C1000      C1003   1.451       .  S
C1001      N1008   1.151       .  T
C1002      N1007   1.153       .  T
C1003      N1005   1.154       .  T
C1004      N1006   1.153       .  T
