geometry optimzed in LAMMPS
_audit_creation_date              2020-11-30 
_audit_creation_method            'lammps2cif' 
_symmetry_space_group_name_H-M    'P1' 
_symmetry_Int_Tables_number       1 
_symmetry_cell_setting            triclinic 
loop_ 
_symmetry_equiv_pos_as_xyz 
  x,y,z 
_cell_length_a                    39.520989008605156 
_cell_length_b                    39.48363979175413 
_cell_length_c                    39.52554175853402 
_cell_angle_alpha                 89.99177401818372 
_cell_angle_beta                  90.01911302892671 
_cell_angle_gamma                 89.97380800063826 
loop_ 
_atom_site_label 
_atom_site_type_symbol 
_atom_site_fract_x 
_atom_site_fract_y 
_atom_site_fract_z 
_atom_site_charge 
O1          O  0.76239549  0.61898086  0.81473231    -0.83960
C2          C  0.74673138  0.58204875  0.68071562     0.95400
O3          O  0.73758831  0.56567096  0.70586123    -0.73070
O4          O  0.79707043  0.57587704  0.72720211    -0.76670
Al5        Al  0.75423832  0.57383100  0.74792069     1.48980
C6          C  0.82310152  0.58523372  0.74263109     0.90650
O7          O  0.79886894  0.66666070  0.73319502    -0.82890
O8          O  0.70206854  0.65430074  0.76077030    -0.76450
Al9        Al  0.78069878  0.64195815  0.77261278     1.90120
O10         O  0.74775835  0.67530146  0.71327844    -0.75510
O11         O  0.68795821  0.60245115  0.72396380    -0.75360
O12         O  0.74303605  0.61438567  0.68038553    -0.81030
O13         O  0.70811826  0.57161433  0.76563335    -0.79230
O14         O  0.75254723  0.61763641  0.74697515    -1.15360
O15         O  0.77429168  0.57139539  0.79100508    -0.74560
C16         C  0.76233815  0.58672859  0.81586948     0.96160
C17         C  0.77895253  0.68132676  0.71252976     0.92560
Al18       Al  0.72222615  0.63611539  0.72124704     1.55560
O19         O  0.82028455  0.60829704  0.76583660    -0.79180
C20         C  0.68400396  0.57894731  0.74499863     0.96720
C21         C  0.71516957  0.67981946  0.77456915     0.91600
O22         O  0.74701999  0.67963414  0.78085306    -0.84500
O23         O  0.67936970  0.35981842  0.73167688    -0.83960
C24         C  0.81324188  0.39645264  0.74887856     0.95400
O25         O  0.78805361  0.41315836  0.75737403    -0.73070
O26         O  0.76714282  0.40291930  0.69762236    -0.76670
Al27       Al  0.74612605  0.40514886  0.74041520     1.48980
C28         C  0.75183598  0.39328263  0.67157549     0.90650
O29         O  0.76269822  0.31216853  0.69713058    -0.82890
O30         O  0.73198069  0.32575463  0.79347379    -0.76450
Al31       Al  0.72207468  0.33666541  0.71433595     1.90120
O32         O  0.77947162  0.30320758  0.74914408    -0.75510
O33         O  0.76947023  0.37720724  0.80729358    -0.75360
O34         O  0.81338129  0.36414628  0.75305204    -0.81030
O35         O  0.72799086  0.40782268  0.78642961    -0.79230
O36         O  0.74701474  0.36140240  0.74262253    -1.15360
O37         O  0.70325910  0.40738351  0.71986966    -0.74560
C38         C  0.67815775  0.39213777  0.73141522     0.96160
C39         C  0.78272198  0.29787251  0.71804494     0.92560
Al40       Al  0.77206316  0.34311422  0.77366726     1.55560
O41         O  0.72898737  0.36990453  0.67446719    -0.79180
C42         C  0.74838318  0.40068983  0.81083862     0.96720
C43         C  0.71898693  0.29970121  0.78061241     0.91600
O44         O  0.71343141  0.29923778  0.74856768    -0.84500
O45         O  0.74356961  0.56190034  0.87101314    -0.83960
C46         C  0.75924869  0.42794933  0.83310471     0.95400
O47         O  0.76804195  0.45321298  0.81661758    -0.73070
O48         O  0.70873066  0.47475812  0.82724951    -0.76670
Al49       Al  0.75158863  0.49540961  0.82508090     1.48980
C50         C  0.68282274  0.49018837  0.83699377     0.90650
O51         O  0.70795888  0.47948594  0.91784135    -0.82890
O52         O  0.80427324  0.50822369  0.90432955    -0.76450
Al53       Al  0.72562341  0.51944046  0.89355567     1.90120
O54         O  0.75942780  0.46039245  0.92619439    -0.75510
O55         O  0.81800107  0.47115084  0.85301784    -0.75360
O56         O  0.76338275  0.42753295  0.86534964    -0.81030
O57         O  0.79770655  0.51313520  0.82271928    -0.79230
O58         O  0.75359193  0.49409674  0.86874188    -1.15360
O59         O  0.73165801  0.53867618  0.82319025    -0.74560
C60         C  0.74357579  0.56341863  0.83882213     0.96160
C61         C  0.72829873  0.45895039  0.93214781     0.92560
Al62       Al  0.78424060  0.46843960  0.88675782     1.55560
O63         O  0.68584198  0.51307980  0.86029856    -0.79180
C64         C  0.82187413  0.49249180  0.82986570     0.96720
C65         C  0.79152444  0.52150809  0.93023009     0.91600
O66         O  0.75962880  0.52743785  0.93081588    -0.84500
O67         O  0.68355521  0.87156511  0.50346349    -0.83960
C68         C  0.81700019  0.83432199  0.48500131     0.95400
O69         O  0.79172337  0.81762404  0.47683804    -0.73070
O70         O  0.77144858  0.82818449  0.53677983    -0.76670
Al71       Al  0.75001846  0.82576267  0.49413958     1.48980
C72         C  0.75636074  0.83787477  0.56293266     0.90650
O73         O  0.76629116  0.91893815  0.53700977    -0.82890
O74         O  0.73521983  0.90506228  0.44133794    -0.76450
Al75       Al  0.72609914  0.89432402  0.52040510     1.90120
O76         O  0.78380786  0.92733936  0.48501118    -0.75510
O77         O  0.77256944  0.85362942  0.42690177    -0.75360
O78         O  0.81714330  0.86658670  0.48064605    -0.81030
O79         O  0.73155244  0.82284083  0.44821533    -0.79230
O80         O  0.75089144  0.86951498  0.49188927    -1.15360
O81         O  0.70728965  0.82380936  0.51490675    -0.74560
C82         C  0.68236522  0.83935792  0.50329402     0.96160
C83         C  0.78606676  0.93340558  0.51606694     0.92560
Al84       Al  0.77561056  0.88766508  0.46056538     1.55560
O85         O  0.73345455  0.86120750  0.56018801    -0.79180
C86         C  0.75159032  0.83005849  0.42356420     0.96720
C87         C  0.72179003  0.93078972  0.45445787     0.91600
O88         O  0.71691487  0.93136586  0.48651954    -0.84500
O89         O  0.74266402  0.16596564  0.86217445    -0.83960
C90         C  0.75863690  0.29994827  0.89966053     0.95400
O91         O  0.76714090  0.27460119  0.91621282    -0.73070
O92         O  0.70775673  0.25346465  0.90525725    -0.76670
Al93       Al  0.75044545  0.23255356  0.90768020     1.48980
C94         C  0.68183253  0.23817827  0.89532248     0.90650
O95         O  0.70738322  0.24839894  0.81443520    -0.82890
O96         O  0.80363546  0.21983538  0.82902922    -0.76450
Al97       Al  0.72497553  0.20853571  0.83910203     1.90120
O98         O  0.75874815  0.26789195  0.80663010    -0.75510
O99         O  0.81707195  0.25648376  0.88020016    -0.75360
O100        O  0.76278306  0.30037449  0.86745982    -0.81030
O101        O  0.79641451  0.21442972  0.91019457    -0.79230
O102        O  0.75269844  0.23391604  0.86405017    -1.15360
O103        O  0.73009507  0.18949064  0.90964723    -0.74560
C104        C  0.74192280  0.16448809  0.89440562     0.96160
C105        C  0.72763787  0.26910052  0.80027278     0.92560
Al106      Al  0.78351283  0.25953145  0.84625957     1.55560
O107        O  0.68489281  0.21519268  0.87207088    -0.79180
C108        C  0.82076520  0.23488357  0.90316538     0.96720
C109        C  0.79126252  0.20688648  0.80288923     0.91600
O110        O  0.75941352  0.20060908  0.80200834    -0.84500
O111        O  0.67685317  0.86136234  0.23647146    -0.83960
C112        C  0.81111452  0.89953258  0.25009389     0.95400
O113        O  0.78590203  0.91592958  0.25926083    -0.73070
O114        O  0.76349574  0.90491982  0.20033972    -0.76670
Al115      Al  0.74345983  0.90718855  0.24337700     1.48980
C116        C  0.74792566  0.89480433  0.17465748     0.90650
O117        O  0.75874390  0.81451200  0.19934092    -0.82890
O118        O  0.73213660  0.82767037  0.29619732    -0.76450
Al119      Al  0.71916968  0.83862966  0.21789378     1.90120
O120        O  0.77945366  0.80633016  0.25018017    -0.75510
O121        O  0.76869494  0.87952548  0.30952254    -0.75360
O122        O  0.81167733  0.86728917  0.25415038    -0.81030
O123        O  0.72623482  0.90948177  0.28967798    -0.79230
O124        O  0.74496278  0.86352248  0.24539062    -1.15360
O125        O  0.70001812  0.90907794  0.22389295    -0.74560
C126        C  0.67524295  0.89362755  0.23592640     0.96160
C127        C  0.78013289  0.80052150  0.21895403     0.92560
Al128      Al  0.77131448  0.84564941  0.27554384     1.55560
O129        O  0.72489964  0.87171504  0.17805501    -0.79180
C130        C  0.74723548  0.90261071  0.31360812     0.96720
C131        C  0.71909880  0.80158822  0.28360630     0.91600
O132        O  0.71210505  0.80121372  0.25194074    -0.84500
O133        O  0.82116827  0.98109858  0.11353313    -0.83960
C134        C  0.68767396  0.99800728  0.15193504     0.95400
O135        O  0.71301832  0.00674263  0.16824548    -0.73070
O136        O  0.73397540  0.94715678  0.15756652    -0.76670
Al137      Al  0.75494543  0.98989863  0.15970908     1.48980
C138        C  0.74917484  0.92108210  0.14786409     0.90650
O139        O  0.73886854  0.94571632  0.06734106    -0.82890
O140        O  0.76793965  0.04213785  0.07978860    -0.76450
Al141      Al  0.77875474  0.96333325  0.09131703     1.90120
O142        O  0.71989530  0.99725592  0.05877582    -0.75510
O143        O  0.73120193  0.05653535  0.13156073    -0.75360
O144        O  0.68718325  0.00194203  0.11966240    -0.81030
O145        O  0.77289903  0.03598883  0.16205107    -0.79230
O146        O  0.75366766  0.99174604  0.11603226    -1.15360
O147        O  0.79796812  0.96965533  0.16149929    -0.74560
C148        C  0.82265586  0.98139092  0.14567969     0.96160
C149        C  0.71843133  0.96604986  0.05299597     0.92560
Al150      Al  0.72816492  0.02244237  0.09790884     1.55560
O151        O  0.77216384  0.92383930  0.12469194    -0.79180
C152        C  0.75241413  0.06030451  0.15486991     0.96720
C153        C  0.78134478  0.02892482  0.05412060     0.91600
O154        O  0.78697427  0.99695930  0.05391725    -0.84500
O155        O  0.75875241  0.12103441  0.31560886    -0.83960
C156        C  0.74170249  0.08277595  0.18201311     0.95400
O157        O  0.73298021  0.06650781  0.20740434    -0.73070
O158        O  0.79271726  0.07717714  0.22823633    -0.76670
Al159      Al  0.75002135  0.07513028  0.24928040     1.48980
C160        C  0.81882306  0.08720692  0.24319821     0.90650
O161        O  0.79414799  0.16756704  0.23312618    -0.82890
O162        O  0.69777770  0.15537667  0.26193199    -0.76450
Al163      Al  0.77644364  0.14358984  0.27301674     1.90120
O164        O  0.74286608  0.17603393  0.21358162    -0.75510
O165        O  0.68328051  0.10325603  0.22575929    -0.75360
O166        O  0.73776092  0.11504517  0.18145718    -0.81030
O167        O  0.70402486  0.07288968  0.26748542    -0.79230
O168        O  0.74812227  0.11885984  0.24791387    -1.15360
O169        O  0.77056360  0.07325303  0.29214030    -0.74560
C170        C  0.75902803  0.08878979  0.31707935     0.96160
C171        C  0.77410370  0.18168003  0.21225725     0.92560
Al172      Al  0.71743190  0.13695632  0.22231828     1.55560
O173        O  0.81599707  0.11031027  0.26628928    -0.79180
C174        C  0.67962517  0.07996221  0.24706681     0.96720
C175        C  0.71101242  0.18122355  0.27490642     0.91600
O176        O  0.74285895  0.18118380  0.28102616    -0.84500
O177        O  0.82467467  0.24747171  0.12108281    -0.83960
C178        C  0.69053101  0.23286052  0.08346131     0.95400
O179        O  0.71572041  0.22366616  0.06713255    -0.73070
O180        O  0.73762193  0.28294404  0.07755630    -0.76670
Al181      Al  0.75796545  0.23989014  0.07557507     1.48980
C182        C  0.75308427  0.30884448  0.08731319     0.90650
O183        O  0.74290679  0.28445582  0.16806119    -0.82890
O184        O  0.76985227  0.18748285  0.15568682    -0.76450
Al185      Al  0.78240710  0.26601307  0.14380406     1.90120
O186        O  0.72263158  0.23343428  0.17652419    -0.75510
O187        O  0.73324963  0.17373623  0.10388724    -0.75360
O188        O  0.69004811  0.22905357  0.11571976    -0.81030
O189        O  0.77535269  0.19357537  0.07347819    -0.79230
O190        O  0.75670144  0.23812589  0.11926228    -1.15360
O191        O  0.80127944  0.25961269  0.07341306    -0.74560
C192        C  0.82612237  0.24767929  0.08885615     0.96160
C193        C  0.72193076  0.26466016  0.18238654     0.92560
Al194      Al  0.73060992  0.20792857  0.13747070     1.55560
O195        O  0.77618549  0.30572210  0.11039562    -0.79180
C196        C  0.75449703  0.16959844  0.08066440     0.96720
C197        C  0.78319118  0.20044369  0.18145717     0.91600
O198        O  0.78997472  0.23220224  0.18140934    -0.84500
O199        O  0.75900869  0.10877466  0.91981264    -0.83960
C200        C  0.74346975  0.14736131  0.05350395     0.95400
O201        O  0.73498739  0.16386634  0.02814560    -0.73070
O202        O  0.79437937  0.15245081  0.00681295    -0.76670
Al203      Al  0.75145156  0.15500752  0.98609672     1.48980
C204        C  0.82018217  0.14215796  0.99150637     0.90650
O205        O  0.79376171  0.06181775  0.00266159    -0.82890
O206        O  0.69761316  0.07615750  0.97378531    -0.76450
Al207      Al  0.77648589  0.08603428  0.96251929     1.90120
O208        O  0.74218010  0.05419070  0.02167120    -0.75510
O209        O  0.68452163  0.12806764  0.01030906    -0.75360
O210        O  0.73889146  0.11517407  0.05409028    -0.81030
O211        O  0.70534566  0.15784517  0.96823714    -0.79230
O212        O  0.74881490  0.11135476  0.98763001    -1.15360
O213        O  0.77158485  0.15652134  0.94293864    -0.74560
C214        C  0.75975376  0.14102193  0.91808706     0.96160
C215        C  0.77324536  0.04803729  0.02332999     0.92560
Al216      Al  0.71785417  0.09385155  0.01333983     1.55560
O217        O  0.81677190  0.11873877  0.96878201    -0.79180
C218        C  0.68098759  0.15112973  0.98879873     0.96720
C219        C  0.71010691  0.04990694  0.96093255     0.91600
O220        O  0.74196879  0.04904344  0.95478538    -0.84500
O221        O  0.74195112  0.06415007  0.37284930    -0.83960
C222        C  0.75806275  0.93010303  0.33552545     0.95400
O223        O  0.76609436  0.95536045  0.31863946    -0.73070
O224        O  0.70663264  0.97659688  0.33008361    -0.76670
Al225      Al  0.74952115  0.99743475  0.32706374     1.48980
C226        C  0.68083313  0.99203941  0.34021281     0.90650
O227        O  0.70826284  0.98157702  0.42081449    -0.82890
O228        O  0.80403411  0.01132021  0.40481605    -0.76450
Al229      Al  0.72496508  0.02163505  0.39600927     1.90120
O230        O  0.76018418  0.96341131  0.42831196    -0.75510
O231        O  0.81684845  0.97372555  0.35368633    -0.75360
O232        O  0.76290171  0.92993985  0.36767524    -0.81030
O233        O  0.79565989  0.01535332  0.32352802    -0.79230
O234        O  0.75253901  0.99640527  0.37066946    -1.15360
O235        O  0.72917486  0.04052114  0.32542180    -0.74560
C236        C  0.74111315  0.06549353  0.34065496     0.96160
C237        C  0.72921220  0.96143192  0.43479786     0.92560
Al238      Al  0.78389154  0.97118956  0.38818182     1.55560
O239        O  0.68431056  0.01486377  0.36357453    -0.79180
C240        C  0.82019874  0.99497652  0.33039162     0.96720
C241        C  0.79199195  0.02447145  0.43109939     0.91600
O242        O  0.76001229  0.03007942  0.43256468    -0.84500
O243        O  0.67956243  0.36906741  0.99996380    -0.83960
C244        C  0.81317752  0.33039452  0.98389337     0.95400
O245        O  0.78775878  0.31408852  0.97529867    -0.73070
O246        O  0.76678682  0.32533654  0.03470037    -0.76670
Al247      Al  0.74580396  0.32296974  0.99203053     1.48980
C248        C  0.75166912  0.33540304  0.06065705     0.90650
O249        O  0.76198857  0.41616269  0.03507649    -0.82890
O250        O  0.73330739  0.40248981  0.93882748    -0.76450
Al251      Al  0.72208871  0.39173752  0.01763787     1.90120
O252        O  0.78138124  0.42385171  0.98363054    -0.75510
O253        O  0.76964877  0.35043831  0.92531426    -0.75360
O254        O  0.81374503  0.36266412  0.97970660    -0.81030
O255        O  0.72770452  0.32046544  0.94611582    -0.79230
O256        O  0.74725735  0.36668835  0.98972610    -1.15360
O257        O  0.70277414  0.32133042  0.01230537    -0.74560
C258        C  0.67802306  0.33684512  0.00028857     0.96160
C259        C  0.78261582  0.43021165  0.01470498     0.92560
Al260      Al  0.77289842  0.38441474  0.95891674     1.55560
O261        O  0.72873384  0.35869580  0.05761653    -0.79180
C262        C  0.74818267  0.32732818  0.92177447     0.96720
C263        C  0.71992184  0.42837477  0.95161032     0.91600
O264        O  0.71398536  0.42887693  0.98349549    -0.84500
O265        O  0.74450160  0.61735037  0.55424114    -0.83960
C266        C  0.76520218  0.64436072  0.41888182     0.95400
O267        O  0.77713659  0.65983039  0.44368636    -0.73070
O268        O  0.71080898  0.66101021  0.46898491    -0.76670
Al269      Al  0.75699670  0.65798435  0.48675933     1.48980
C270        C  0.68646457  0.65396745  0.48945876     0.90650
O271        O  0.70351519  0.57920475  0.47317792    -0.82890
O272        O  0.79964760  0.56437348  0.50238837    -0.76450
Al273      Al  0.72360277  0.59636845  0.51314198     1.90120
O274        O  0.74799757  0.55233055  0.45406477    -0.75510
O275        O  0.82259206  0.62223694  0.46917996    -0.75360
O276        O  0.76495765  0.61214908  0.42021397    -0.81030
O277        O  0.79990528  0.65542172  0.50748349    -0.79230
O278        O  0.75458169  0.61425437  0.48781890    -1.15360
O279        O  0.74045938  0.66631953  0.52878480    -0.74560
C280        C  0.74890471  0.64960151  0.55399180     0.96160
C281        C  0.71602465  0.55327763  0.45962901     0.92560
Al282      Al  0.78244498  0.58923215  0.46253202     1.55560
O283        O  0.69010697  0.63057250  0.51059317    -0.79180
C284        C  0.82575184  0.64571198  0.49191345     0.96720
C285        C  0.77897995  0.54997110  0.52250882     0.91600
O286        O  0.74795267  0.55651080  0.52100953    -0.84500
O287        O  0.82574659  0.48018709  0.61196824    -0.83960
C288        C  0.69213173  0.49788799  0.64899482     0.95400
O289        O  0.71738548  0.50607793  0.66573330    -0.73070
O290        O  0.73793776  0.44616421  0.65485465    -0.76670
Al291      Al  0.75916707  0.48889578  0.65749510     1.48980
C292        C  0.75315014  0.42010911  0.64498260     0.90650
O293        O  0.74323037  0.44662554  0.56399609    -0.82890
O294        O  0.77349864  0.54249789  0.57874914    -0.76450
Al295      Al  0.78325072  0.46331688  0.58883789     1.90120
O296        O  0.72512914  0.49855729  0.55607736    -0.75510
O297        O  0.73628019  0.55625656  0.63008468    -0.75360
O298        O  0.69195047  0.50238949  0.61679542    -0.81030
O299        O  0.77753418  0.53490654  0.66062161    -0.79230
O300        O  0.75824612  0.49146103  0.61380306    -1.15360
O301        O  0.80188782  0.46805046  0.65942938    -0.74560
C302        C  0.82694481  0.47965043  0.64416608     0.96160
C303        C  0.72320501  0.46749394  0.54972158     0.92560
Al304      Al  0.73330187  0.52282374  0.59589935     1.55560
O305        O  0.77600845  0.42311285  0.62163851    -0.79180
C306        C  0.75739800  0.55957782  0.65352014     0.96720
C307        C  0.78685475  0.52982777  0.55283098     0.91600
O308        O  0.79216324  0.49776842  0.55198008    -0.84500
O309        O  0.82936376  0.74953372  0.62240221    -0.83960
C310        C  0.69510715  0.73468145  0.58502716     0.95400
O311        O  0.72033888  0.72587064  0.56851107    -0.73070
O312        O  0.74209343  0.78521434  0.57945676    -0.76670
Al313      Al  0.76256045  0.74222146  0.57704590     1.48980
C314        C  0.75763224  0.81101064  0.58940965     0.90650
O315        O  0.74710179  0.78529526  0.67029505    -0.82890
O316        O  0.77492015  0.68867464  0.65614629    -0.76450
Al317      Al  0.78689163  0.76744053  0.64563821     1.90120
O318        O  0.72733328  0.73401809  0.67818446    -0.75510
O319        O  0.73817880  0.67557280  0.60447122    -0.75360
O320        O  0.69471898  0.73045596  0.61723721    -0.81030
O321        O  0.78025214  0.69600009  0.57441646    -0.79230
O322        O  0.76131264  0.73987023  0.62071393    -1.15360
O323        O  0.80573038  0.76228400  0.57500538    -0.74560
C324        C  0.83078130  0.75043688  0.59014201     0.96160
C325        C  0.72620257  0.76517164  0.68438030     0.92560
Al326      Al  0.73543896  0.70922831  0.63853942     1.55560
O327        O  0.78052532  0.80767703  0.61270342    -0.79180
C328        C  0.75958529  0.67176745  0.58134611     0.96720
C329        C  0.78810795  0.70106665  0.68223938     0.91600
O330        O  0.79465806  0.73290804  0.68285299    -0.84500
O331        O  0.74649053  0.66869696  0.36356907    -0.83960
C332        C  0.76226997  0.80288485  0.40100407     0.95400
O333        O  0.77150750  0.77762666  0.41720644    -0.73070
O334        O  0.71207548  0.75624424  0.40684285    -0.76670
Al335      Al  0.75483182  0.73549667  0.40888250     1.48980
C336        C  0.68602192  0.74096422  0.39728989     0.90650
O337        O  0.70941554  0.75012798  0.31693192    -0.82890
O338        O  0.80634532  0.72295935  0.32818232    -0.76450
Al339      Al  0.72798302  0.71081578  0.34096256     1.90120
O340        O  0.76027606  0.77051746  0.30794292    -0.75510
O341        O  0.82091051  0.75952891  0.38004002    -0.75360
O342        O  0.76569931  0.80327666  0.36868896    -0.81030
O343        O  0.80094649  0.71773940  0.41086678    -0.79230
O344        O  0.75627374  0.73651057  0.36518609    -1.15360
O345        O  0.73480011  0.69239771  0.41122907    -0.74560
C346        C  0.74660172  0.66750982  0.39576475     0.96160
C347        C  0.72896542  0.77117285  0.30250100     0.92560
Al348      Al  0.78634278  0.76242601  0.34668151     1.55560
O349        O  0.68876465  0.71747250  0.37457747    -0.79180
C350        C  0.82499627  0.73842174  0.40346659     0.96720
C351        C  0.79300475  0.70943859  0.30266259     0.91600
O352        O  0.76124679  0.70289479  0.30310885    -0.84500
O353        O  0.43354946  0.75270947  0.61169849    -0.83960
C354        C  0.56706044  0.73563067  0.65020457     0.95400
O355        O  0.54167674  0.72704827  0.66653269    -0.73070
O356        O  0.52080441  0.78671953  0.65583070    -0.76670
Al357      Al  0.49976752  0.74392710  0.65794658     1.48980
C358        C  0.50566114  0.81282523  0.64606622     0.90650
O359        O  0.51617361  0.78778226  0.56555343    -0.82890
O360        O  0.48674050  0.69143838  0.57810756    -0.76450
Al361      Al  0.47610834  0.77034968  0.58946358     1.90120
O362        O  0.53482628  0.73613047  0.55702355    -0.75510
O363        O  0.52343130  0.67715686  0.62995519    -0.75360
O364        O  0.56754130  0.73159537  0.61794641    -0.81030
O365        O  0.48175425  0.69783793  0.66034817    -0.79230
O366        O  0.50108465  0.74195209  0.61427427    -1.15360
O367        O  0.45673177  0.76422991  0.65966071    -0.74560
C368        C  0.43200318  0.75251913  0.64386497     0.96160
C369        C  0.53657716  0.76732031  0.55132993     0.92560
Al370      Al  0.52652768  0.71112488  0.59623332     1.55560
O371        O  0.48272519  0.81000155  0.62280696    -0.79180
C372        C  0.50218448  0.67345731  0.65322003     0.96720
C373        C  0.47349868  0.70459880  0.55232248     0.91600
O374        O  0.46789486  0.73658920  0.55204884    -0.84500
O375        O  0.62699273  0.81541752  0.48463942    -0.83960
C376        C  0.66416635  0.68123938  0.50030388     0.95400
O377        O  0.68065127  0.70642747  0.50919422    -0.73070
O378        O  0.66965705  0.72775458  0.44988526    -0.76670
Al379      Al  0.67230679  0.74854089  0.49256667     1.48980
C380        C  0.65972464  0.74297813  0.42393058     0.90650
O381        O  0.57928753  0.73416201  0.44864007    -0.82890
O382        O  0.59287103  0.76181506  0.54512848    -0.76450
Al383      Al  0.60402087  0.77339842  0.46659568     1.90120
O384        O  0.57117218  0.71407054  0.49977186    -0.75510
O385        O  0.64435269  0.72469073  0.55907810    -0.75360
O386        O  0.63189423  0.68098516  0.50423709    -0.81030
O387        O  0.67500982  0.76633528  0.53865157    -0.79230
O388        O  0.62862279  0.74766362  0.49457036    -1.15360
O389        O  0.67444795  0.79160431  0.47245770    -0.74560
C390        C  0.65916602  0.81645524  0.48456725     0.96160
C391        C  0.56489453  0.71345329  0.46861232     0.92560
Al392      Al  0.61049430  0.72202142  0.52505740     1.55560
O393        O  0.63700720  0.76645048  0.42690805    -0.79180
C394        C  0.66784354  0.74574193  0.56285173     0.96720
C395        C  0.56725314  0.77558378  0.53224998     0.91600
O396        O  0.56694100  0.78175188  0.50043666    -0.84500
O397        O  0.49569081  0.61267890  0.81395178    -0.83960
C398        C  0.51281308  0.65094298  0.68037815     0.95400
O399        O  0.52151008  0.66720055  0.70577734    -0.73070
O400        O  0.46178168  0.65649018  0.72647673    -0.76670
Al401      Al  0.50444953  0.65856965  0.74761437     1.48980
C402        C  0.43567026  0.64653860  0.74144646     0.90650
O403        O  0.46048582  0.56606316  0.73136198    -0.82890
O404        O  0.55682517  0.57827546  0.76033759    -0.76450
Al405      Al  0.47808084  0.59008902  0.77131960     1.90120
O406        O  0.51184396  0.55762661  0.71204686    -0.75510
O407        O  0.57117695  0.63044084  0.72419079    -0.75360
O408        O  0.51676642  0.61866552  0.67982981    -0.81030
O409        O  0.55040321  0.66084725  0.76586642    -0.79230
O410        O  0.50640891  0.61482744  0.74628009    -1.15360
O411        O  0.48389127  0.66046689  0.79047056    -0.74560
C412        C  0.49540740  0.64492724  0.81543548     0.96160
C413        C  0.48063603  0.55193123  0.71061218     0.92560
Al414      Al  0.53713028  0.59673557  0.72073034     1.55560
O415        O  0.43847895  0.62338973  0.76451322    -0.79180
C416        C  0.57480136  0.65373729  0.74548240     0.96720
C417        C  0.54360421  0.55245035  0.77339806     0.91600
O418        O  0.51173364  0.55249003  0.77944111    -0.84500
O419        O  0.62261888  0.41774003  0.74876603    -0.83960
C420        C  0.66163536  0.55179337  0.73396782     0.95400
O421        O  0.67795455  0.52635695  0.72526278    -0.73070
O422        O  0.66665311  0.50452014  0.78438443    -0.76670
Al423      Al  0.66895614  0.48407501  0.74142922     1.48980
C424        C  0.65645375  0.48914243  0.81015801     0.90650
O425        O  0.57623344  0.50048424  0.78463943    -0.82890
O426        O  0.58968869  0.47252654  0.68811015    -0.76450
Al427      Al  0.60015811  0.46043700  0.76674777     1.90120
O428        O  0.56831820  0.52028295  0.73339362    -0.75510
O429        O  0.64171378  0.50891609  0.67490039    -0.75360
O430        O  0.62942839  0.55244769  0.72972723    -0.81030
O431        O  0.67145905  0.46651817  0.69522147    -0.79230
O432        O  0.62533649  0.48577127  0.73911277    -1.15360
O433        O  0.67044700  0.44068192  0.76123438    -0.74560
C434        C  0.65482984  0.41589808  0.74935102     0.96160
C435        C  0.56241309  0.52156095  0.76454879     0.92560
Al436      Al  0.60773647  0.51188618  0.70855579     1.55560
O437        O  0.63312812  0.46632655  0.80680396    -0.79180
C438        C  0.66469081  0.48733342  0.67106994     0.96720
C439        C  0.56352839  0.45955990  0.70063395     0.91600
O440        O  0.56288877  0.45313017  0.73244357    -0.84500
O441        O  0.63522340  0.81475152  0.75190448    -0.83960
C442        C  0.59720347  0.68100531  0.73489739     0.95400
O443        O  0.58085549  0.70640848  0.72622053    -0.73070
O444        O  0.59105621  0.72737719  0.78601940    -0.76670
Al445      Al  0.58934279  0.74837696  0.74314110     1.48980
C446        C  0.60069698  0.74262823  0.81210622     0.90650
O447        O  0.68194627  0.73141952  0.78686996    -0.82890
O448        O  0.66950227  0.76105348  0.69055935    -0.76450
Al449      Al  0.65783750  0.77183829  0.76947769     1.90120
O450        O  0.69048695  0.71281075  0.73529574    -0.75510
O451        O  0.61743339  0.72469936  0.67643150    -0.75360
O452        O  0.62943984  0.68047517  0.73082919    -0.81030
O453        O  0.58719258  0.76654903  0.69709905    -0.79230
O454        O  0.63307708  0.74692154  0.74118875    -1.15360
O455        O  0.58741170  0.79140180  0.76359315    -0.74560
C456        C  0.60296738  0.81639991  0.75217227     0.96160
C457        C  0.69619572  0.71089713  0.76643822     0.92560
Al458      Al  0.65118021  0.72139316  0.71035328     1.55560
O459        O  0.62430489  0.76527622  0.80925979    -0.79180
C460        C  0.59427497  0.74611493  0.67271238     0.96720
C461        C  0.69544378  0.77399129  0.70364723     0.91600
O462        O  0.69553794  0.77991312  0.73559623    -0.84500
O463        O  0.37636258  0.73382566  0.66738996    -0.83960
C464        C  0.41234668  0.74956325  0.80153916     0.95400
O465        O  0.42905650  0.75844763  0.77652760    -0.73070
O466        O  0.41855467  0.69898129  0.75519041    -0.76670
Al467      Al  0.42113067  0.74178996  0.73446150     1.48980
C468        C  0.40898208  0.67302378  0.73972778     0.90650
O469        O  0.32770926  0.69806846  0.74855329    -0.82890
O470        O  0.34169510  0.79460286  0.72059458    -0.76450
Al471      Al  0.35298454  0.71584008  0.70930541     1.90120
O472        O  0.31952721  0.74940597  0.76818183    -0.75510
O473        O  0.39294383  0.80841849  0.75803558    -0.75360
O474        O  0.38008426  0.75361348  0.80159294    -0.81030
O475        O  0.42389408  0.78792285  0.71667551    -0.79230
O476        O  0.37739076  0.74383515  0.73507441    -1.15360
O477        O  0.42365244  0.72162916  0.69148003    -0.74560
C478        C  0.40856548  0.73374171  0.66654450     0.96160
C479        C  0.31302031  0.71828007  0.76891978     0.92560
Al480      Al  0.35903365  0.77447543  0.76047007     1.55560
O481        O  0.38607839  0.67599866  0.71643076    -0.79180
C482        C  0.41657026  0.81216597  0.73716583     0.96720
C483        C  0.31621953  0.78170844  0.70659647     0.91600
O484        O  0.31596485  0.74982008  0.70056871    -0.84500
O485        O  0.51247311  0.66958047  0.87125883    -0.83960
C486        C  0.49666456  0.80355142  0.83383393     0.95400
O487        O  0.48843941  0.77830718  0.81704412    -0.73070
O488        O  0.54787934  0.75704965  0.82844803    -0.76670
Al489      Al  0.50499347  0.73625578  0.82555583     1.48980
C490        C  0.57367777  0.74160210  0.83857320     0.90650
O491        O  0.54643925  0.75195723  0.91962335    -0.82890
O492        O  0.45052326  0.72282460  0.90367670    -0.76450
Al493      Al  0.52960121  0.71205302  0.89451120     1.90120
O494        O  0.49466951  0.77071131  0.92676124    -0.75510
O495        O  0.43778600  0.76008108  0.85223405    -0.75360
O496        O  0.49189781  0.80382519  0.86598529    -0.81030
O497        O  0.45888750  0.71835457  0.82215876    -0.79230
O498        O  0.50206269  0.73736991  0.86921405    -1.15360
O499        O  0.52530953  0.69317692  0.82387325    -0.74560
C500        C  0.51332166  0.66821979  0.83906489     0.96160
C501        C  0.52559603  0.77215627  0.93371000     0.92560
Al502      Al  0.47082372  0.76274211  0.88671636     1.55560
O503        O  0.57023540  0.71884196  0.86201832    -0.79180
C504        C  0.43441689  0.73881032  0.82894877     0.96720
C505        C  0.46269927  0.70942016  0.92979442     0.91600
O506        O  0.49464179  0.70361934  0.93103524    -0.84500
O507        O  0.88647312  0.73358888  0.56423434    -0.83960
C508        C  0.84740513  0.74945585  0.43054958     0.95400
O509        O  0.83112045  0.75810878  0.45599235    -0.73070
O510        O  0.84204750  0.69853465  0.47744839    -0.76670
Al511      Al  0.84006711  0.74156943  0.49808272     1.48980
C512        C  0.85222671  0.67263037  0.49273026     0.90650
O513        O  0.93268338  0.69842906  0.48088495    -0.82890
O514        O  0.91952264  0.79487577  0.50987589    -0.76450
Al515      Al  0.90890998  0.71596472  0.52129011     1.90120
O516        O  0.94077307  0.74995226  0.46183966    -0.75510
O517        O  0.86736532  0.80837396  0.47368845    -0.75360
O518        O  0.87959215  0.75377239  0.42983827    -0.81030
O519        O  0.83774077  0.78775478  0.51595441    -0.79230
O520        O  0.88370704  0.74385570  0.49631535    -1.15360
O521        O  0.83858319  0.72139044  0.54125017    -0.74560
C522        C  0.85423378  0.73291936  0.56614630     0.96160
C523        C  0.94645473  0.71877123  0.45999536     0.92560
Al524      Al  0.90132832  0.77468895  0.47045167     1.55560
O525        O  0.87584432  0.67587687  0.51526910    -0.79180
C526        C  0.84446658  0.81209382  0.49533009     0.96720
C527        C  0.94575897  0.78217295  0.52255396     0.91600
O528        O  0.94631379  0.75026117  0.52876107    -0.84500
O529        O  0.87072761  0.73388586  0.16718739    -0.83960
C530        C  0.91020929  0.74998303  0.30075890     0.95400
O531        O  0.92628644  0.75881775  0.27525574    -0.73070
O532        O  0.91559156  0.69924382  0.25393736    -0.76670
Al533      Al  0.91724328  0.74218864  0.23320001     1.48980
C534        C  0.90553530  0.67323469  0.23880603     0.90650
O535        O  0.82514470  0.69815240  0.25047347    -0.82890
O536        O  0.83691410  0.79480222  0.22189169    -0.76450
Al537      Al  0.84859575  0.71600829  0.21015141     1.90120
O538        O  0.81677848  0.74949003  0.26995064    -0.75510
O539        O  0.88944536  0.80878003  0.25756973    -0.75360
O540        O  0.87799430  0.75401607  0.30157761    -0.81030
O541        O  0.91912982  0.78830572  0.21525253    -0.79230
O542        O  0.87358258  0.74414027  0.23508253    -1.15360
O543        O  0.91877123  0.72200888  0.19004545    -0.74560
C544        C  0.90295983  0.73344575  0.16519341     0.96160
C545        C  0.81130861  0.71825000  0.27152422     0.92560
Al546      Al  0.85578094  0.77474685  0.26109152     1.55560
O547        O  0.88201116  0.67625863  0.21614952    -0.79180
C548        C  0.91233623  0.81258034  0.23590863     0.96720
C549        C  0.81083304  0.78170504  0.20927805     0.91600
O550        O  0.81081233  0.74984841  0.20285615    -0.84500
O551        O  0.24299670  0.66885732  0.85753636    -0.83960
C552        C  0.25840206  0.80284592  0.89555343     0.95400
O553        O  0.26677330  0.77752179  0.91219983    -0.73070
O554        O  0.20737029  0.75608226  0.90081554    -0.76670
Al555      Al  0.25034711  0.73539593  0.90349349     1.48980
C556        C  0.18160793  0.74060370  0.89066978     0.90650
O557        O  0.20862684  0.75154808  0.80985744    -0.82890
O558        O  0.30473586  0.72260841  0.82516704    -0.76450
Al559      Al  0.22571291  0.71149039  0.83450755     1.90120
O560        O  0.26030031  0.77040868  0.80249567    -0.75510
O561        O  0.31741072  0.75956465  0.87680546    -0.75360
O562        O  0.26308600  0.80326220  0.86339500    -0.81030
O563        O  0.29651362  0.71754850  0.90662348    -0.79230
O564        O  0.25319918  0.73674242  0.85986287    -1.15360
O565        O  0.23013617  0.69224577  0.90504429    -0.74560
C566        C  0.24200588  0.66728601  0.88974082     0.96160
C567        C  0.22930689  0.77199801  0.79594290     0.92560
Al568      Al  0.28429267  0.76234020  0.84241793     1.55560
O569        O  0.18510579  0.71794329  0.86713306    -0.79180
C570        C  0.32091356  0.73810230  0.89990681     0.96720
C571        C  0.29260403  0.70952317  0.79888487     0.91600
O572        O  0.26068372  0.70349377  0.79771502    -0.84500
O573        O  0.32257600  0.75137539  0.11691287    -0.83960
C574        C  0.18890082  0.73440972  0.07910867     0.95400
O575        O  0.21419523  0.72564637  0.06276359    -0.73070
O576        O  0.23502384  0.78527161  0.07344441    -0.76670
Al577      Al  0.25609444  0.74258080  0.07113695     1.48980
C578        C  0.25011803  0.81139249  0.08316540     0.90650
O579        O  0.24070070  0.78699395  0.16354960    -0.82890
O580        O  0.26955182  0.69053810  0.15113360    -0.76450
Al581      Al  0.28033479  0.76925481  0.13935548     1.90120
O582        O  0.22147209  0.73556904  0.17216774    -0.75510
O583        O  0.23266302  0.67592506  0.09944378    -0.75360
O584        O  0.18854891  0.73057577  0.11139582    -0.81030
O585        O  0.27411898  0.69650789  0.06870411    -0.79230
O586        O  0.25507615  0.74079598  0.11482164    -1.15360
O587        O  0.29904113  0.76286580  0.06912457    -0.74560
C588        C  0.32379517  0.75100144  0.08476345     0.96160
C589        C  0.22022020  0.76680535  0.17796652     0.92560
Al590      Al  0.22967191  0.71016200  0.13308485     1.55560
O591        O  0.27340983  0.80866838  0.10604480    -0.79180
C592        C  0.25370661  0.67218085  0.07596574     0.96720
C593        C  0.28314320  0.70385791  0.17665096     0.91600
O594        O  0.28880997  0.73578856  0.17670504    -0.84500
O595        O  0.12017624  0.81356390  0.97740462    -0.83960
C596        C  0.15817910  0.67983931  0.99452733     0.95400
O597        O  0.17467379  0.70520322  0.00298373    -0.73070
O598        O  0.16422737  0.72615078  0.94319272    -0.76670
Al599      Al  0.16623203  0.74717063  0.98607766     1.48980
C600        C  0.15457868  0.74149905  0.91715433     0.90650
O601        O  0.07348626  0.73041007  0.94293062    -0.82890
O602        O  0.08669311  0.76051343  0.03906889    -0.76450
Al603      Al  0.09760866  0.77079227  0.96004884     1.90120
O604        O  0.06500671  0.71230800  0.99470178    -0.75510
O605        O  0.13846608  0.72362774  0.05299801    -0.75360
O606        O  0.12594969  0.67945386  0.99878968    -0.81030
O607        O  0.16874260  0.76531240  0.03214728    -0.79230
O608        O  0.12252944  0.74588324  0.98827169    -1.15360
O609        O  0.16800350  0.79018996  0.96562234    -0.74560
C610        C  0.15239753  0.81511606  0.97717417     0.96160
C611        C  0.05926949  0.71013218  0.96359138     0.92560
Al612      Al  0.10453727  0.72057917  0.01930430     1.55560
O613        O  0.13096682  0.76415548  0.92009886    -0.79180
C614        C  0.16168340  0.74495189  0.05660917     0.96720
C615        C  0.06066268  0.77355939  0.02622729     0.91600
O616        O  0.06014368  0.77909852  0.99420158    -0.84500
O617        O  0.92745271  0.75012281  0.10882916    -0.83960
C618        C  0.06175017  0.73530541  0.14571554     0.95400
O619        O  0.03659417  0.72662336  0.16237350    -0.73070
O620        O  0.01489325  0.78595436  0.15126808    -0.76670
Al621      Al  0.99440561  0.74297887  0.15396017     1.48980
C622        C  0.99920898  0.81171745  0.14144548     0.90650
O623        O  0.00949513  0.78550789  0.06025569    -0.82890
O624        O  0.98171627  0.68898582  0.07500503    -0.76450
Al625      Al  0.96980128  0.76789635  0.08532628     1.90120
O626        O  0.02913703  0.73410484  0.05268645    -0.75510
O627        O  0.01862478  0.67616889  0.12670758    -0.75360
O628        O  0.06202627  0.73090844  0.11352248    -0.81030
O629        O  0.97677180  0.69678548  0.15696389    -0.79230
O630        O  0.99545179  0.74038680  0.11026534    -1.15360
O631        O  0.95123660  0.76307956  0.15607274    -0.74560
C632        C  0.92617975  0.75109006  0.14108794     0.96160
C633        C  0.03016725  0.76516661  0.04608482     0.92560
Al634      Al  0.02122077  0.70960928  0.09246354     1.55560
O635        O  0.97631183  0.80832543  0.11814552    -0.79180
C636        C  0.99741031  0.67251798  0.15002172     0.96720
C637        C  0.96831414  0.70134310  0.04897592     0.91600
O638        O  0.96179369  0.73320040  0.04831867    -0.84500
O639        O  0.13038471  0.81622273  0.24534849    -0.83960
C640        C  0.09326984  0.68195999  0.23053295     0.95400
O641        O  0.07662851  0.70713966  0.22179616    -0.73070
O642        O  0.08785591  0.72879593  0.28099422    -0.76670
Al643      Al  0.08504262  0.74934257  0.23813932     1.48980
C644        C  0.09798019  0.74418310  0.30679157     0.90650
O645        O  0.17834999  0.73469535  0.28127863    -0.82890
O646        O  0.16394187  0.76223725  0.18482703    -0.76450
Al647      Al  0.15355446  0.77408897  0.26338799     1.90120
O648        O  0.18612875  0.71459685  0.23011143    -0.75510
O649        O  0.11249391  0.72514128  0.17149392    -0.75360
O650        O  0.12547776  0.68167265  0.22627667    -0.81030
O651        O  0.08207184  0.76695947  0.19196868    -0.79230
O652        O  0.12869881  0.74832090  0.23577806    -1.15360
O653        O  0.08303368  0.79252974  0.25808022    -0.74560
C654        C  0.09817929  0.81739336  0.24584799     0.96160
C655        C  0.19251218  0.71385241  0.26123091     0.92560
Al656      Al  0.14658276  0.72255513  0.20518464     1.55560
O657        O  0.12083314  0.76747651  0.30345860    -0.79180
C658        C  0.08908806  0.74629724  0.16777453     0.96720
C659        C  0.18985790  0.77566525  0.19735237     0.91600
O660        O  0.19048692  0.78209073  0.22912748    -0.84500
O661        O  0.01193691  0.67003263  0.36794597    -0.83960
C662        C  0.99502305  0.80384783  0.33020698     0.95400
O663        O  0.98598774  0.77851134  0.31406285    -0.73070
O664        O  0.04567326  0.75765501  0.32428699    -0.76670
Al665      Al  0.00300467  0.73660242  0.32243129     1.48980
C666        C  0.07183876  0.74247747  0.33373937     0.90650
O667        O  0.04804869  0.75213381  0.41468728    -0.82890
O668        O  0.95140916  0.72388095  0.40329664    -0.76450
Al669      Al  0.03001801  0.71243495  0.39050306     1.90120
O670        O  0.99687027  0.77183802  0.42346799    -0.75510
O671        O  0.93668523  0.76022030  0.35122268    -0.75360
O672        O  0.99148665  0.80435458  0.36251556    -0.81030
O673        O  0.95699651  0.71856800  0.32043450    -0.79230
O674        O  0.00150111  0.73774915  0.36618137    -1.15360
O675        O  0.02338353  0.69362746  0.32019962    -0.74560
C676        C  0.01175288  0.66872193  0.33574209     0.96160
C677        C  0.02810105  0.77283323  0.42920667     0.92560
Al678      Al  0.97112579  0.76343211  0.38462631     1.55560
O679        O  0.06927968  0.71927492  0.35679173    -0.79180
C680        C  0.93278244  0.73909646  0.32780251     0.96720
C681        C  0.96490492  0.71037826  0.42877744     0.91600
O682        O  0.99675321  0.70421143  0.42832060    -0.84500
O683        O  0.37906584  0.73177366  0.06125412    -0.83960
C684        C  0.34296295  0.74870192  0.92736538     0.95400
O685        O  0.32616191  0.75730146  0.95241158    -0.73070
O686        O  0.33673189  0.69765085  0.97331150    -0.76670
Al687      Al  0.33403431  0.74035529  0.99433052     1.48980
C688        C  0.34633415  0.67160756  0.98864353     0.90650
O689        O  0.42751417  0.69700960  0.97976850    -0.82890
O690        O  0.41304186  0.79314908  0.00902695    -0.76450
Al691      Al  0.40228268  0.71424420  0.01924304     1.90120
O692        O  0.43571614  0.74869052  0.96105873    -0.75510
O693        O  0.36203695  0.80727343  0.97126518    -0.75360
O694        O  0.37521728  0.75289868  0.92737383    -0.81030
O695        O  0.33105622  0.78641565  0.01237420    -0.79230
O696        O  0.37775367  0.74247590  0.99377531    -1.15360
O697        O  0.33166937  0.71993873  0.03718582    -0.74560
C698        C  0.34689647  0.73194293  0.06208766     0.96160
C699        C  0.44221739  0.71759003  0.95979590     0.92560
Al700      Al  0.39604539  0.77344568  0.96877813     1.55560
O701        O  0.36930656  0.67444634  0.01186536    -0.79180
C702        C  0.33836467  0.81084243  0.99209189     0.96720
C703        C  0.43852077  0.78019215  0.02301588     0.91600
O704        O  0.43908045  0.74820034  0.02839819    -0.84500
O705        O  0.01338106  0.16597207  0.86978067    -0.83960
C706        C  0.99569793  0.30111333  0.83673231     0.95400
O707        O  0.99189866  0.27597952  0.81823158    -0.73070
O708        O  0.05147672  0.25648297  0.83411528    -0.76670
Al709      Al  0.00957141  0.23427932  0.82595635     1.48980
C710        C  0.07663860  0.23951754  0.84334909     0.90650
O711        O  0.04517890  0.24702245  0.92070161    -0.82890
O712        O  0.95014438  0.21596092  0.90270840    -0.76450
Al713      Al  0.02965863  0.20756746  0.89510530     1.90120
O714        O  0.99298920  0.26582846  0.92679799    -0.75510
O715        O  0.93869969  0.25205565  0.84831150    -0.75360
O716        O  0.98854376  0.29933037  0.86807646    -0.81030
O717        O  0.96569902  0.21513439  0.81652453    -0.79230
O718        O  0.00272358  0.23309175  0.86929265    -1.15360
O719        O  0.03031553  0.19104819  0.82421345    -0.74560
C720        C  0.01618404  0.16596997  0.83757654     0.96160
C721        C  0.02416594  0.26772287  0.93363555     0.92560
Al722      Al  0.96952788  0.25667460  0.88595652     1.55560
O723        O  0.07169949  0.21508470  0.86472011    -0.79180
C724        C  0.93941862  0.23282332  0.82273366     0.96720
C725        C  0.96225677  0.20394699  0.92958820     0.91600
O726        O  0.99418153  0.19841761  0.93088319    -0.84500
O727        O  0.88161809  0.22944614  0.06381633    -0.83960
C728        C  0.84319689  0.24519991  0.93027566     0.95400
O729        O  0.82689785  0.25392616  0.95563717    -0.73070
O730        O  0.83745449  0.19445704  0.97696754    -0.76670
Al731      Al  0.83555255  0.23740716  0.99758703     1.48980
C732        C  0.84715427  0.16851143  0.99241293     0.90650
O733        O  0.92828495  0.19336072  0.98110814    -0.82890
O734        O  0.91520208  0.28996171  0.00968756    -0.76450
Al735      Al  0.90415717  0.21133240  0.02119365     1.90120
O736        O  0.93644392  0.24455109  0.96119949    -0.75510
O737        O  0.86350958  0.30393550  0.97325753    -0.75360
O738        O  0.87540832  0.24921319  0.92957011    -0.81030
O739        O  0.83328999  0.28367566  0.01526336    -0.79230
O740        O  0.87926057  0.23930204  0.99596017    -1.15360
O741        O  0.83379855  0.21732480  0.04075226    -0.74560
C742        C  0.84938319  0.22920439  0.06549482     0.96160
C743        C  0.94229334  0.21330069  0.95995640     0.92560
Al744      Al  0.89720414  0.26986846  0.97012349     1.55560
O745        O  0.87070457  0.17149740  0.01507649    -0.79180
C746        C  0.84035801  0.30788261  0.99460326     0.96720
C747        C  0.94109529  0.27735001  0.02310816     0.91600
O748        O  0.94172869  0.24538308  0.02893582    -0.84500
O749        O  0.99251666  0.61860959  0.91656593    -0.83960
C750        C  0.00901134  0.58234806  0.05059185     0.95400
O751        O  0.01779329  0.56571874  0.02548479    -0.73070
O752        O  0.95817009  0.57605954  0.00439275    -0.76670
Al753      Al  0.00093474  0.57366825  0.98350734     1.48980
C754        C  0.93213705  0.58562766  0.98903972     0.90650
O755        O  0.95690231  0.66683230  0.99818502    -0.82890
O756        O  0.05335291  0.65365457  0.96965039    -0.76450
Al757      Al  0.97461900  0.64185706  0.95866220     1.90120
O758        O  0.00824850  0.67537033  0.01749222    -0.75510
O759        O  0.06756448  0.60206587  0.00684570    -0.75360
O760        O  0.01293493  0.61465015  0.05070272    -0.81030
O761        O  0.04698012  0.57102517  0.96558074    -0.79230
O762        O  0.00284216  0.61747259  0.98420247    -1.15360
O763        O  0.98065593  0.57113739  0.94055518    -0.74560
C764        C  0.99257220  0.58635623  0.91561004     0.96160
C765        C  0.97707778  0.68147276  0.01861978     0.92560
Al766      Al  0.03348656  0.63593737  0.00953928     1.55560
O767        O  0.93499117  0.60858648  0.96577938    -0.79180
C768        C  0.07127618  0.57838476  0.98598308     0.96720
C769        C  0.04022239  0.67914319  0.95579387     0.91600
O770        O  0.00832145  0.67917517  0.94992327    -0.84500
O771        O  0.87270831  0.49836400  0.06321118    -0.83960
C772        C  0.91063454  0.48143127  0.92917498     0.95400
O773        O  0.92700788  0.47325374  0.95468406    -0.73070
O774        O  0.91562313  0.53287258  0.97551256    -0.76670
Al775      Al  0.91830356  0.49021731  0.99661884     1.48980
C776        C  0.90569882  0.55888040  0.99071775     0.90650
O777        O  0.82518313  0.53330887  0.98116906    -0.82890
O778        O  0.83900125  0.43704659  0.00976920    -0.76450
Al779      Al  0.84974984  0.51587572  0.02081137     1.90120
O780        O  0.81740602  0.48182727  0.96173070    -0.75510
O781        O  0.89064470  0.42334915  0.97321997    -0.75360
O782        O  0.87834924  0.47748600  0.92886265    -0.81030
O783        O  0.92110992  0.44427369  0.01478506    -0.79230
O784        O  0.87463921  0.48786905  0.99548720    -1.15360
O785        O  0.92020237  0.51072236  0.03957386    -0.74560
C786        C  0.90490496  0.49894185  0.06456033     0.96160
C787        C  0.81107448  0.51295298  0.96060695     0.92560
Al788      Al  0.85678563  0.45698462  0.97001744     1.55560
O789        O  0.88266461  0.55586576  0.01387157    -0.79180
C790        C  0.91397245  0.41985266  0.99443241     0.96720
C791        C  0.81311719  0.44979792  0.02310729     0.91600
O792        O  0.81261880  0.48170732  0.02912083    -0.84500
O793        O  0.01138733  0.56153352  0.86057716    -0.83960
C794        C  0.99585528  0.42732639  0.89849185     0.95400
O795        O  0.98721840  0.45271735  0.91487536    -0.73070
O796        O  0.04636234  0.47437980  0.90415841    -0.76670
Al797      Al  0.00353482  0.49495387  0.90640946     1.48980
C798        C  0.07226758  0.48979488  0.89443125     0.90650
O799        O  0.04794837  0.47982581  0.81336955    -0.82890
O800        O  0.95127644  0.50784137  0.82758839    -0.76450
Al801      Al  0.02966062  0.51933838  0.83797552     1.90120
O802        O  0.99678962  0.46037455  0.80491108    -0.75510
O803        O  0.93722375  0.47038554  0.87868028    -0.75360
O804        O  0.99227169  0.42699982  0.86615640    -0.81030
O805        O  0.95727975  0.51255463  0.90880993    -0.79230
O806        O  0.00180297  0.49369458  0.86276955    -1.15360
O807        O  0.02328030  0.53825595  0.90839473    -0.74560
C808        C  0.01132150  0.56299083  0.89274736     0.96160
C809        C  0.02795079  0.45946518  0.79844824     0.92560
Al810      Al  0.97141054  0.46799444  0.84473523     1.55560
O811        O  0.06930325  0.51290404  0.87131250    -0.79180
C812        C  0.93315636  0.49180545  0.90182843     0.96720
C813        C  0.96370111  0.52101698  0.80152758     0.91600
O814        O  0.99554530  0.52720533  0.80068423    -0.84500
O815        O  0.26124269  0.62468277  0.31108995    -0.83960
C816        C  0.24506222  0.58601664  0.17743254     0.95400
O817        O  0.23675214  0.56950132  0.20283048    -0.73070
O818        O  0.29626697  0.58075791  0.22403891    -0.76670
Al819      Al  0.25335214  0.57829660  0.24484457     1.48980
C820        C  0.32213839  0.59094153  0.23931510     0.90650
O821        O  0.29577163  0.67120922  0.22813264    -0.82890
O822        O  0.19966980  0.65733583  0.25750448    -0.76450
Al823      Al  0.27860654  0.64722878  0.26836429     1.90120
O824        O  0.24407836  0.67916666  0.20951128    -0.75510
O825        O  0.18631863  0.60542707  0.22086653    -0.75360
O826        O  0.24052954  0.61822261  0.17692496    -0.81030
O827        O  0.20724709  0.57544635  0.26275791    -0.79230
O828        O  0.25075059  0.62195602  0.24337365    -1.15360
O829        O  0.27358559  0.57684249  0.28795576    -0.74560
C830        C  0.26183920  0.59244813  0.31278951     0.96160
C831        C  0.27517082  0.68502493  0.20756496     0.92560
Al832      Al  0.21970633  0.63957179  0.21781473     1.55560
O833        O  0.31881651  0.61436817  0.26205031    -0.79180
C834        C  0.18282106  0.58227781  0.24227953     0.96720
C835        C  0.21226152  0.68358810  0.27028683     0.91600
O836        O  0.24418350  0.68438059  0.27620008    -0.84500
O837        O  0.32580823  0.48548523  0.10983185    -0.83960
C838        C  0.19173927  0.50064450  0.14759975     0.95400
O839        O  0.21696737  0.50984974  0.16388257    -0.73070
O840        O  0.23878461  0.45049031  0.15361011    -0.76670
Al841      Al  0.25920676  0.49347169  0.15543708     1.48980
C842        C  0.25419240  0.42453211  0.14390090     0.90650
O843        O  0.24375135  0.44855011  0.06327980    -0.82890
O844        O  0.27108171  0.54549633  0.07505223    -0.76450
Al845      Al  0.28342594  0.46699405  0.08727366     1.90120
O846        O  0.22358311  0.49957795  0.05451430    -0.75510
O847        O  0.23463404  0.55964880  0.12698202    -0.75360
O848        O  0.19122458  0.50438992  0.11534187    -0.81030
O849        O  0.27674197  0.53970822  0.15735885    -0.79230
O850        O  0.25786200  0.49508127  0.11174990    -1.15360
O851        O  0.30247728  0.47364298  0.15760812    -0.74560
C852        C  0.32732083  0.48540041  0.14206365     0.96160
C853        C  0.22266254  0.46828600  0.04899439     0.92560
Al854      Al  0.23179594  0.52529070  0.09346418     1.55560
O855        O  0.27726212  0.42750151  0.12080884    -0.79180
C856        C  0.25593005  0.56374484  0.15019798     0.96720
C857        C  0.28428942  0.53233551  0.04930720     0.91600
O858        O  0.29095583  0.50055593  0.04950607    -0.84500
O859        O  0.12388965  0.42105020  0.24923403    -0.83960
C860        C  0.16062455  0.55487861  0.23175783     0.95400
O861        O  0.17723306  0.52965056  0.22322091    -0.73070
O862        O  0.16674464  0.50906595  0.28302631    -0.76670
Al863      Al  0.16913803  0.48781068  0.24038787     1.48980
C864        C  0.15713401  0.49387152  0.30913373     0.90650
O865        O  0.07608439  0.50331421  0.28372897    -0.82890
O866        O  0.08942836  0.47373915  0.18764580    -0.76450
Al867      Al  0.10083769  0.46346656  0.26658308     1.90120
O868        O  0.06772766  0.52195680  0.23208814    -0.75510
O869        O  0.14102836  0.51074298  0.17344853    -0.75360
O870        O  0.12838032  0.55508267  0.22759410    -0.81030
O871        O  0.17186901  0.46949674  0.19447172    -0.79230
O872        O  0.12540073  0.48864602  0.23824043    -1.15360
O873        O  0.17137258  0.44499324  0.26106263    -0.74560
C874        C  0.15609854  0.41994825  0.24938814     0.96160
C875        C  0.06159848  0.52350391  0.26319134     0.92560
Al876      Al  0.10713837  0.51377446  0.20725302     1.55560
O877        O  0.13401331  0.47075476  0.30635229    -0.79180
C878        C  0.16460389  0.48974505  0.16998704     0.96720
C879        C  0.06380555  0.46020185  0.20077591     0.91600
O880        O  0.06362012  0.45460273  0.23273489    -0.84500
O881        O  0.25911548  0.61147189  0.91493216    -0.83960
C882        C  0.24287628  0.64971160  0.04880953     0.95400
O883        O  0.23406165  0.66597193  0.02342133    -0.73070
O884        O  0.29363248  0.65512530  0.00224300    -0.76670
Al885      Al  0.25084487  0.65727535  0.98140383     1.48980
C886        C  0.31962254  0.64518078  0.98704088     0.90650
O887        O  0.29496661  0.56487669  0.99737140    -0.82890
O888        O  0.19839495  0.57705530  0.96916013    -0.76450
Al889      Al  0.27700428  0.58879612  0.95751147     1.90120
O890        O  0.24380705  0.55642679  0.01716028    -0.75510
O891        O  0.18426528  0.62926002  0.00528308    -0.75360
O892        O  0.23897565  0.61744011  0.04934989    -0.81030
O893        O  0.20479148  0.65954790  0.96339458    -0.79230
O894        O  0.24888669  0.61356243  0.98277229    -1.15360
O895        O  0.27116844  0.65920308  0.93840722    -0.74560
C896        C  0.25963454  0.64374040  0.91341064     0.96160
C897        C  0.27505513  0.55086694  0.01841492     0.92560
Al898      Al  0.21836438  0.59552416  0.00859232     1.55560
O899        O  0.31665024  0.62206562  0.96396752    -0.79180
C900        C  0.18050137  0.65249414  0.98392537     0.96720
C901        C  0.21146048  0.55108161  0.95626011     0.91600
O902        O  0.24326263  0.55109980  0.94980322    -0.84500
O903        O  0.13195455  0.41682792  0.98277638    -0.83960
C904        C  0.09368289  0.55122678  0.99704328     0.95400
O905        O  0.07740372  0.52590095  0.00605000    -0.73070
O906        O  0.08848004  0.50386115  0.94698325    -0.76670
Al907      Al  0.08618551  0.48353833  0.98996816     1.48980
C908        C  0.09858032  0.48842941  0.92121072     0.90650
O909        O  0.17875052  0.49899304  0.94599186    -0.82890
O910        O  0.16606159  0.47205548  0.04284172    -0.76450
Al911      Al  0.15468073  0.45928683  0.96438530     1.90120
O912        O  0.18694345  0.51944696  0.99691999    -0.75510
O913        O  0.11395481  0.50845306  0.05620712    -0.75360
O914        O  0.12592390  0.55176892  0.00099314    -0.81030
O915        O  0.08382455  0.46616957  0.03621788    -0.79230
O916        O  0.12984523  0.48496264  0.99203904    -1.15360
O917        O  0.08426267  0.44008388  0.97031441    -0.74560
C918        C  0.09971242  0.41520150  0.98224208     0.96160
C919        C  0.19271287  0.52029493  0.96570885     0.92560
Al920      Al  0.14775081  0.51125012  0.02224702     1.55560
O921        O  0.12159358  0.46528933  0.92454765    -0.79180
C922        C  0.09080561  0.48707472  0.06021616     0.96720
C923        C  0.19201165  0.45883448  0.03010418     0.91600
O924        O  0.19216987  0.45197109  0.99839253    -0.84500
O925        O  0.92980898  0.48154934  0.12017349    -0.83960
C926        C  0.06346711  0.49794649  0.08230869     0.95400
O927        O  0.03816030  0.50623239  0.06564709    -0.73070
O928        O  0.01710393  0.44658147  0.07683284    -0.76670
Al929      Al  0.99620443  0.48949713  0.07420644     1.48980
C930        C  0.00175959  0.42068681  0.08689486     0.90650
O931        O  0.01259876  0.44732980  0.16751185    -0.82890
O932        O  0.98282425  0.54341544  0.15288773    -0.76450
Al933      Al  0.97241279  0.46431938  0.14305565     1.90120
O934        O  0.03099243  0.49914718  0.17533215    -0.75510
O935        O  0.01978227  0.55672803  0.10123566    -0.75360
O936        O  0.06382145  0.50257911  0.11447531    -0.81030
O937        O  0.97812987  0.53559688  0.07112948    -0.79230
O938        O  0.99744653  0.49218047  0.11785843    -1.15360
O939        O  0.95323653  0.46911738  0.07257153    -0.74560
C940        C  0.92834850  0.48095763  0.08796635     0.96160
C941        C  0.03296082  0.46805552  0.18149534     0.92560
Al942      Al  0.02275178  0.52338896  0.13551521     1.55560
O943        O  0.97903852  0.42397888  0.11032719    -0.79180
C944        C  0.99847170  0.56012731  0.07798267     0.96720
C945        C  0.96971644  0.53090421  0.17900351     0.91600
O946        O  0.96411416  0.49890190  0.17995235    -0.84500
O947        O  0.99345251  0.61321398  0.31140528    -0.83960
C948        C  0.00833293  0.65044640  0.17736941     0.95400
O949        O  0.01705972  0.66716049  0.20248279    -0.73070
O950        O  0.95787618  0.65628126  0.22424203    -0.76670
Al951      Al  0.00083505  0.65883095  0.24468846     1.48980
C952        C  0.93211356  0.64649906  0.23986751     0.90650
O953        O  0.95783181  0.56537025  0.22966933    -0.82890
O954        O  0.05428002  0.57979458  0.25770561    -0.76450
Al955      Al  0.97551781  0.59021270  0.26925218     1.90120
O956        O  0.00923372  0.55743842  0.21025621    -0.75510
O957        O  0.06743967  0.63126793  0.22040250    -0.75360
O958        O  0.01266981  0.61819885  0.17712931    -0.81030
O959        O  0.04704464  0.66169346  0.26219997    -0.79230
O960        O  0.00318103  0.61510181  0.24365004    -1.15360
O961        O  0.98102259  0.66082514  0.28791709    -0.74560
C962        C  0.99314783  0.64543810  0.31269775     0.96160
C963        C  0.97816316  0.55099085  0.20920605     0.92560
Al964      Al  0.03386140  0.59713605  0.21800839     1.55560
O965        O  0.93540317  0.62323150  0.26279397    -0.79180
C966        C  0.07120449  0.65465315  0.24153404     0.96720
C967        C  0.04178044  0.55392386  0.27133955     0.91600
O968        O  0.00990388  0.55320655  0.27739748    -0.84500
O969        O  0.24427095  0.06456687  0.86820394    -0.83960
C970        C  0.26120438  0.93061049  0.83023783     0.95400
O971        O  0.27021770  0.95600845  0.81415972    -0.73070
O972        O  0.21054723  0.97680034  0.82468057    -0.76670
Al973      Al  0.25316303  0.99795512  0.82268418     1.48980
C974        C  0.18434100  0.99166711  0.83451795     0.90650
O975        O  0.20817207  0.98249763  0.91477393    -0.82890
O976        O  0.30480731  0.01044788  0.90359199    -0.76450
Al977      Al  0.22625274  0.02210201  0.89075449     1.90120
O978        O  0.25923518  0.96245594  0.92348536    -0.75510
O979        O  0.31953223  0.97434266  0.85138706    -0.75360
O980        O  0.26472452  0.93008244  0.86254439    -0.81030
O981        O  0.29913842  0.01605792  0.82068489    -0.79230
O982        O  0.25474224  0.99677056  0.86640184    -1.15360
O983        O  0.23273061  0.04095683  0.82048878    -0.74560
C984        C  0.24430148  0.06593837  0.83600122     0.96160
C985        C  0.22797507  0.96155828  0.92907747     0.92560
Al986      Al  0.28508178  0.97098007  0.88476995     1.55560
O987        O  0.18698695  0.01513093  0.85726440    -0.79180
C988        C  0.32337649  0.99551832  0.82799117     0.96720
C989        C  0.29128745  0.02389223  0.92907504     0.91600
O990        O  0.25949040  0.03023523  0.92853737    -0.84500
O991        O  0.17689358  0.87088900  0.99495935    -0.83960
C992        C  0.31123577  0.83320792  0.98101300     0.95400
O993        O  0.28605781  0.81684395  0.97180997    -0.73070
O994        O  0.26393144  0.82783146  0.03077591    -0.76670
Al995      Al  0.24371630  0.82541605  0.98786387     1.48980
C996        C  0.24840963  0.83775686  0.05653656     0.90650
O997        O  0.25811463  0.91816683  0.03225010    -0.82890
O998        O  0.23186679  0.90508569  0.93533618    -0.76450
Al999      Al  0.21893493  0.89378473  0.01358449     1.90120
O1000       O  0.27904673  0.92637884  0.98150643    -0.75510
O1001       O  0.26861653  0.85340871  0.92179493    -0.75360
O1002       O  0.31166770  0.86550152  0.97721882    -0.81030
O1003       O  0.22643382  0.82304733  0.94157387    -0.79230
O1004       O  0.24490482  0.86910517  0.98597883    -1.15360
O1005       O  0.20039749  0.82330242  0.00748293    -0.74560
C1006       C  0.17556505  0.83864131  0.99540090     0.96160
C1007       C  0.27935773  0.93238098  0.01272010     0.92560
Al1008     Al  0.27113240  0.88716617  0.95592979     1.55560
O1009       O  0.22509002  0.86060820  0.05330810    -0.79180
C1010       C  0.24736074  0.83015156  0.91765403     0.96720
C1011       C  0.21853825  0.93100755  0.94798180     0.91600
O1012       O  0.21153382  0.93124189  0.97964145    -0.84500
O1013       O  0.63306298  0.42083768  0.48091005    -0.83960
C1014       C  0.59645914  0.55479261  0.49788861     0.95400
O1015       O  0.57973413  0.52960011  0.50628142    -0.73070
O1016       O  0.59047571  0.50885965  0.44658036    -0.76670
Al1017     Al  0.58784586  0.48770917  0.48929721     1.48980
C1018       C  0.60019405  0.49357797  0.42055883     0.90650
O1019       O  0.68140097  0.50296493  0.44671065    -0.82890
O1020       O  0.66690985  0.47346806  0.54269197    -0.76450
Al1021     Al  0.65632049  0.46318462  0.46366747     1.90120
O1022       O  0.68933401  0.52148693  0.49844942    -0.75510
O1023       O  0.61551614  0.51079591  0.55635790    -0.75360
O1024       O  0.62868687  0.55491589  0.50225444    -0.81030
O1025       O  0.58480568  0.46952409  0.53528365    -0.79230
O1026       O  0.63156690  0.48847291  0.49173759    -1.15360
O1027       O  0.58568682  0.44482899  0.46872384    -0.74560
C1028       C  0.60085625  0.41978696  0.48057639     0.96160
C1029       C  0.69584948  0.52299875  0.46743255     0.92560
Al1030     Al  0.64963110  0.51356402  0.52285197     1.55560
O1031       O  0.62338614  0.47050577  0.42355483    -0.79180
C1032       C  0.59197591  0.48979414  0.55977659     0.96720
C1033       C  0.69264650  0.45982492  0.52991358     0.91600
O1034       O  0.69323130  0.45423725  0.49794383    -0.84500
O1035       O  0.49625797  0.62456983  0.41820024    -0.83960
C1036       C  0.51169014  0.58600286  0.55191411     0.95400
O1037       O  0.52021304  0.56946158  0.52659035    -0.73070
O1038       O  0.46083270  0.58062774  0.50505668    -0.76670
Al1039     Al  0.50382781  0.57826169  0.48447829     1.48980
C1040       C  0.43500300  0.59093963  0.48977772     0.90650
O1041       O  0.46129404  0.67147335  0.50092727    -0.82890
O1042       O  0.55749826  0.65706590  0.47218320    -0.76450
Al1043     Al  0.47867841  0.64723358  0.46086067     1.90120
O1044       O  0.51282570  0.67916577  0.52007072    -0.75510
O1045       O  0.57068151  0.60529874  0.50886491    -0.75360
O1046       O  0.51621985  0.61819297  0.55247322    -0.81030
O1047       O  0.55001808  0.57551129  0.46673603    -0.79230
O1048       O  0.50633876  0.62192723  0.48603930    -1.15360
O1049       O  0.48377454  0.57678203  0.44129213    -0.74560
C1050       C  0.49560795  0.59233278  0.41647845     0.96160
C1051       C  0.48174590  0.68536054  0.52160068     0.92560
Al1052     Al  0.53725221  0.63947870  0.51176774     1.55560
O1053       O  0.43839935  0.61441447  0.46707991    -0.79180
C1054       C  0.57433648  0.58225891  0.48735627     0.96720
C1055       C  0.54507763  0.68335980  0.45936398     0.91600
O1056       O  0.51321062  0.68428567  0.45319139    -0.84500
O1057       O  0.43066731  0.48587384  0.61952362    -0.83960
C1058       C  0.56480549  0.50071307  0.58210341     0.95400
O1059       O  0.53962943  0.50989719  0.56573220    -0.73070
O1060       O  0.51786118  0.45065087  0.57630491    -0.76670
Al1061     Al  0.49740391  0.49357783  0.57413995     1.48980
C1062       C  0.50239274  0.42475200  0.58599901     0.90650
O1063       O  0.51230038  0.44911194  0.66677691    -0.82890
O1064       O  0.48526178  0.54600938  0.65411519    -0.76450
Al1065     Al  0.47287153  0.46746795  0.64235391     1.90120
O1066       O  0.53261008  0.50014019  0.67515138    -0.75510
O1067       O  0.52190807  0.55977507  0.60238368    -0.75360
O1068       O  0.56523650  0.50453271  0.61436495    -0.81030
O1069       O  0.47988124  0.53980250  0.57192766    -0.79230
O1070       O  0.49858122  0.49537767  0.61782924    -1.15360
O1071       O  0.45416393  0.47375300  0.57190449    -0.74560
C1072       C  0.42929015  0.48564059  0.58730716     0.96160
C1073       C  0.53323783  0.46892131  0.68113790     0.92560
Al1074     Al  0.52459507  0.52561797  0.63603286     1.55560
O1075       O  0.47924023  0.42779132  0.60901531    -0.79180
C1076       C  0.50068072  0.56382243  0.57910528     0.96720
C1077       C  0.47178752  0.53306982  0.67982526     0.91600
O1078       O  0.46512566  0.50129346  0.67984203    -0.84500
O1079       O  0.62845254  0.91757008  0.98567765    -0.83960
C1080       C  0.59125425  0.05164957  0.00129211     0.95400
O1081       O  0.57467464  0.02647680  0.01008277    -0.73070
O1082       O  0.58571173  0.00515755  0.95073316    -0.76670
Al1083     Al  0.58304139  0.98437556  0.99345995     1.48980
C1084       C  0.59578638  0.98995363  0.92481171     0.90650
O1085       O  0.67612799  0.99900228  0.95000823    -0.82890
O1086       O  0.66216296  0.97106408  0.04639912    -0.76450
Al1087     Al  0.65144891  0.95966152  0.96779938     1.90120
O1088       O  0.68415098  0.01891864  0.00121915    -0.75510
O1089       O  0.61077576  0.00818840  0.06011744    -0.75360
O1090       O  0.62348693  0.05191108  0.00544486    -0.81030
O1091       O  0.58026301  0.96651013  0.03953707    -0.79230
O1092       O  0.62670798  0.98531805  0.99565593    -1.15360
O1093       O  0.58100990  0.94134914  0.97329322    -0.74560
C1094       C  0.59627533  0.91647353  0.98537622     0.96160
C1095       C  0.69039850  0.01971770  0.97006612     0.92560
Al1096     Al  0.64472146  0.01089898  0.02629360     1.55560
O1097       O  0.61859198  0.96657017  0.92792114    -0.79180
C1098       C  0.58736402  0.98705384  0.06380070     0.96720
C1099       C  0.68794629  0.95751554  0.03369236     0.91600
O1100       O  0.68845535  0.95137035  0.00186747    -0.84500
O1101       O  0.57169397  0.86127279  0.00367342    -0.83960
C1102       C  0.43828322  0.89893728  0.98536960     0.95400
O1103       O  0.46361838  0.91562810  0.97737681    -0.73070
O1104       O  0.48385297  0.90465299  0.03728487    -0.76670
Al1105     Al  0.50530251  0.90729239  0.99463953     1.48980
C1106       C  0.49892615  0.89481894  0.06340834     0.90650
O1107       O  0.48891703  0.81400445  0.03684706    -0.82890
O1108       O  0.51991442  0.82846854  0.94122862    -0.76450
Al1109     Al  0.52911185  0.83851047  0.02040512     1.90120
O1110       O  0.47149700  0.80588823  0.98476250    -0.75510
O1111       O  0.48258738  0.87986505  0.92727076    -0.75360
O1112       O  0.43808272  0.86668553  0.98088291    -0.81030
O1113       O  0.52372589  0.91045616  0.94869474    -0.79230
O1114       O  0.50435228  0.86358069  0.99208405    -1.15360
O1115       O  0.54805590  0.90900516  0.01546531    -0.74560
C1116       C  0.57298320  0.89347606  0.00383522     0.96160
C1117       C  0.46914194  0.79975960  0.01578030     0.92560
Al1118     Al  0.47957950  0.84569328  0.96064333     1.55560
O1119       O  0.52181396  0.87144818  0.06050595    -0.79180
C1120       C  0.50368120  0.90331583  0.92399259     0.96720
C1121       C  0.53318193  0.80248415  0.95398180     0.91600
O1122       O  0.53813190  0.80155041  0.98607003    -0.84500
O1123       O  0.50951362  0.06441934  0.86410350    -0.83960
C1124       C  0.49310017  0.93045691  0.90138297     0.95400
O1125       O  0.48386373  0.95570636  0.91754808    -0.73070
O1126       O  0.54347427  0.97670216  0.90737812    -0.76670
Al1127     Al  0.50080107  0.99767393  0.90928760     1.48980
C1128       C  0.56960979  0.99190628  0.89795045     0.90650
O1129       O  0.54607873  0.98290748  0.81695051    -0.82890
O1130       O  0.44926673  0.01043240  0.82829618    -0.76450
Al1131     Al  0.52778617  0.02225242  0.84136692     1.90120
O1132       O  0.49511643  0.96262909  0.80821608    -0.75510
O1133       O  0.43459369  0.97403216  0.88034541    -0.75360
O1134       O  0.48964063  0.93002780  0.86906539    -0.81030
O1135       O  0.45478654  0.01566638  0.91123238    -0.79230
O1136       O  0.49936173  0.99668707  0.86552593    -1.15360
O1137       O  0.52109072  0.04061952  0.91172167    -0.74560
C1138       C  0.50936288  0.06555555  0.89629779     0.96160
C1139       C  0.52635537  0.96210253  0.80233183     0.92560
Al1140     Al  0.46914794  0.97093206  0.84696803     1.55560
O1141       O  0.56702077  0.01527700  0.87506862    -0.79180
C1142       C  0.43064821  0.99508563  0.90384305     0.96720
C1143       C  0.46275512  0.02422739  0.80298107     0.91600
O1144       O  0.49455155  0.03056155  0.80358278    -0.84500
O1145       O  0.63222486  0.31551804  0.24933606    -0.83960
C1146       C  0.59347994  0.18139929  0.23453493     0.95400
O1147       O  0.57717278  0.20676976  0.22559493    -0.73070
O1148       O  0.58814220  0.22875095  0.28472339    -0.76670
Al1149     Al  0.58599194  0.24911875  0.24175323     1.48980
C1150       C  0.59813562  0.24422059  0.31051752     0.90650
O1151       O  0.67837078  0.23312958  0.28570512    -0.82890
O1152       O  0.66547143  0.26090383  0.18901465    -0.76450
Al1153     Al  0.65457260  0.27301238  0.26753761     1.90120
O1154       O  0.68673471  0.21329397  0.23455496    -0.75510
O1155       O  0.61364342  0.22424429  0.17545163    -0.75360
O1156       O  0.62572529  0.18083089  0.23052641    -0.81030
O1157       O  0.58372847  0.26662233  0.19550600    -0.79230
O1158       O  0.62961147  0.24756162  0.23975830    -1.15360
O1159       O  0.58432076  0.29250106  0.26146447    -0.74560
C1160       C  0.60002774  0.31724904  0.24964099     0.96160
C1161       C  0.69236223  0.21206657  0.26577261     0.92560
Al1162     Al  0.64744664  0.22146155  0.20938910     1.55560
O1163       O  0.62138153  0.26712394  0.30730733    -0.79180
C1164       C  0.59064470  0.24578363  0.17143148     0.96720
C1165       C  0.69152978  0.27397460  0.20167690     0.91600
O1166       O  0.69201612  0.28036573  0.23349188    -0.84500
O1167       O  0.42975882  0.25278275  0.11154660    -0.83960
C1168       C  0.56328183  0.23518242  0.14924749     0.95400
O1169       O  0.53796950  0.22707486  0.16592070    -0.73070
O1170       O  0.51741862  0.28690842  0.15467636    -0.76670
Al1171     Al  0.49619332  0.24419708  0.15749206     1.48980
C1172       C  0.50226374  0.31294563  0.14465961     0.90650
O1173       O  0.51214454  0.28649289  0.06424029    -0.82890
O1174       O  0.48186764  0.19064347  0.07903943    -0.76450
Al1175     Al  0.47218787  0.26972518  0.08873412     1.90120
O1176       O  0.53029119  0.23457151  0.05630231    -0.75510
O1177       O  0.51920268  0.17678621  0.13031797    -0.75360
O1178       O  0.56351725  0.23067251  0.11704540    -0.81030
O1179       O  0.47791141  0.19813460  0.16074471    -0.79230
O1180       O  0.49718184  0.24159352  0.11385549    -1.15360
O1181       O  0.45342271  0.26494357  0.15912905    -0.74560
C1182       C  0.42852025  0.25316797  0.14370851     0.96160
C1183       C  0.53225155  0.26567846  0.05011916     0.92560
Al1184     Al  0.52214618  0.21024579  0.09610342     1.55560
O1185       O  0.47929549  0.30989587  0.12143881    -0.79180
C1186       C  0.49807125  0.17346093  0.15372734     0.96720
C1187       C  0.46862983  0.20322496  0.05300850     0.91600
O1188       O  0.46343375  0.23528161  0.05193400    -0.84500
O1189       O  0.49218087  0.11440307  0.31504773    -0.83960
C1190       C  0.50868420  0.15098127  0.18099085     0.95400
O1191       O  0.51774162  0.16737620  0.20614809    -0.73070
O1192       O  0.45816842  0.15708309  0.22713672    -0.76670
Al1193     Al  0.50080997  0.15931005  0.24811269     1.48980
C1194       C  0.43207579  0.14772943  0.24243528     0.90650
O1195       O  0.45616082  0.06636739  0.23360592    -0.82890
O1196       O  0.55277626  0.07889010  0.26163252    -0.76450
Al1197     Al  0.47414746  0.09126589  0.27296186     1.90120
O1198       O  0.50732207  0.05775536  0.21384953    -0.75510
O1199       O  0.56721844  0.13061734  0.22470362    -0.75360
O1200       O  0.51231102  0.11862732  0.18078102    -0.81030
O1201       O  0.54685132  0.16164872  0.26610351    -0.79230
O1202       O  0.50246855  0.11550263  0.24737191    -1.15360
O1203       O  0.48043321  0.16188210  0.29100195    -0.74560
C1204       C  0.49222164  0.14664781  0.31600795     0.96160
C1205       C  0.47613538  0.05163521  0.21307331     0.92560
Al1206     Al  0.53288516  0.09695569  0.22188012     1.55560
O1207       O  0.43470799  0.12481006  0.26577690    -0.79180
C1208       C  0.57107347  0.15424634  0.24562438     0.96720
C1209       C  0.53954957  0.05349669  0.27555555     0.91600
O1210       O  0.50768527  0.05372142  0.28161862    -0.84500
O1211       O  0.61953471  0.91871715  0.25360684    -0.83960
C1212       C  0.65724031  0.05261561  0.23650237     0.95400
O1213       O  0.67367558  0.02722794  0.22796985    -0.73070
O1214       O  0.66329429  0.00631231  0.28774171    -0.76670
Al1215     Al  0.66527547  0.98524781  0.24491544     1.48980
C1216       C  0.65375338  0.99097539  0.31380224     0.90650
O1217       O  0.57262746  0.00196431  0.28826986    -0.82890
O1218       O  0.58544547  0.97208086  0.19205776    -0.76450
Al1219     Al  0.59679316  0.96155663  0.27104175     1.90120
O1220       O  0.56401820  0.02020150  0.23657110    -0.75510
O1221       O  0.63729008  0.00877604  0.17809655    -0.75360
O1222       O  0.62498851  0.05300588  0.23237399    -0.81030
O1223       O  0.66766432  0.96706770  0.19888727    -0.79230
O1224       O  0.62156392  0.98650996  0.24279173    -1.15360
O1225       O  0.66725472  0.94222760  0.26542589    -0.74560
C1226       C  0.65179122  0.91719703  0.25393198     0.96160
C1227       C  0.55839802  0.02235784  0.26769224     0.92560
Al1228     Al  0.60346198  0.01190544  0.21185621     1.55560
O1229       O  0.63023307  0.96823430  0.31092695    -0.79180
C1230       C  0.66052046  0.98744387  0.17445234     0.96720
C1231       C  0.55946530  0.95907297  0.20499446     0.91600
O1232       O  0.55918635  0.95330795  0.23698634    -0.84500
O1233       O  0.42586958  0.98323208  0.12297136    -0.83960
C1234       C  0.56008454  0.99801452  0.08592699     0.95400
O1235       O  0.53489317  0.00680750  0.06933655    -0.73070
O1236       O  0.51319636  0.94744639  0.08020399    -0.76670
Al1237     Al  0.49271083  0.99046889  0.07774735     1.48980
C1238       C  0.49764275  0.92162422  0.09005210     0.90650
O1239       O  0.50804536  0.94749480  0.17121524    -0.82890
O1240       O  0.48018841  0.04409391  0.15672479    -0.76450
Al1241     Al  0.46829457  0.96529414  0.14633166     1.90120
O1242       O  0.52772502  0.99882349  0.17901140    -0.75510
O1243       O  0.51706840  0.05715497  0.10517198    -0.75360
O1244       O  0.56044691  0.00227885  0.11813356    -0.81030
O1245       O  0.47507263  0.03673966  0.07499240    -0.79230
O1246       O  0.49389713  0.99284756  0.12143174    -1.15360
O1247       O  0.44953530  0.97041108  0.07564729    -0.74560
C1248       C  0.42451583  0.98238379  0.09070606     0.96160
C1249       C  0.52881699  0.96770710  0.18540089     0.92560
Al1250     Al  0.51970589  0.02352805  0.13928724     1.55560
O1251       O  0.47474236  0.92495980  0.11335628    -0.79180
C1252       C  0.49573812  0.06097190  0.08196645     0.96720
C1253       C  0.46701235  0.03176216  0.18283814     0.91600
O1254       O  0.46045695  0.99991145  0.18351300    -0.84500
O1255       O  0.49106629  0.12089020  0.92076085    -0.83960
C1256       C  0.50651168  0.08319481  0.05465286     0.95400
O1257       O  0.51505363  0.06654280  0.02944945    -0.73070
O1258       O  0.45580114  0.07775412  0.00796197    -0.76670
Al1259     Al  0.49868550  0.07503183  0.98734562     1.48980
C1260       C  0.43000707  0.08751934  0.99235515     0.90650
O1261       O  0.45606847  0.16866184  0.00263023    -0.82890
O1262       O  0.55235010  0.15391588  0.97421459    -0.76450
Al1263     Al  0.47343989  0.14380269  0.96296921     1.90120
O1264       O  0.50764662  0.17630668  0.02172109    -0.75510
O1265       O  0.56546125  0.10233851  0.01147596    -0.75360
O1266       O  0.51089263  0.11545157  0.05493765    -0.81030
O1267       O  0.54486236  0.07196324  0.96974188    -0.79230
O1268       O  0.50117767  0.11875046  0.98841071    -1.15360
O1269       O  0.47870537  0.07322236  0.94416998    -0.74560
C1270       C  0.49075246  0.08868849  0.91941017     0.96160
C1271       C  0.47664220  0.18298029  0.02288362     0.92560
Al1272     Al  0.53201821  0.13655204  0.01396182     1.55560
O1273       O  0.43324491  0.11087079  0.96950480    -0.79180
C1274       C  0.56911810  0.07895694  0.99033874     0.96720
C1275       C  0.53986077  0.17981055  0.96054492     0.91600
O1276       O  0.50793684  0.18066729  0.95468786    -0.84500
O1277       O  0.62244857  0.31258186  0.98199336    -0.83960
C1278       C  0.65895282  0.17862527  0.99929222     0.95400
O1279       O  0.67570639  0.20380813  0.00767621    -0.73070
O1280       O  0.66498223  0.22448890  0.94796055    -0.76670
Al1281     Al  0.66764879  0.24570389  0.99063385     1.48980
C1282       C  0.65519296  0.23968857  0.92190303     0.90650
O1283       O  0.57430852  0.23028679  0.94774250    -0.82890
O1284       O  0.58854939  0.26004212  0.04363960    -0.76450
Al1285     Al  0.59926078  0.27016669  0.96472365     1.90120
O1286       O  0.56619999  0.21183126  0.99947337    -0.75510
O1287       O  0.63984883  0.22272962  0.05765234    -0.75360
O1288       O  0.62674158  0.17851459  0.00362861    -0.81030
O1289       O  0.67061326  0.26395169  0.03657199    -0.79230
O1290       O  0.62394934  0.24493602  0.99293465    -1.15360
O1291       O  0.66990020  0.28861688  0.97008957    -0.74560
C1292       C  0.65466340  0.31367200  0.98184732     0.96160
C1293       C  0.55988043  0.21019104  0.96841921     0.92560
Al1294     Al  0.60581856  0.21988253  0.02403069     1.55560
O1295       O  0.63214816  0.26285858  0.92482837    -0.79180
C1296       C  0.66338946  0.24373314  0.06108168     0.96720
C1297       C  0.56284237  0.27355677  0.03067146     0.91600
O1298       O  0.56234550  0.27910848  0.99872382    -0.84500
O1299       O  0.07311707  0.87262412  0.22749690    -0.83960
C1300       C  0.93978163  0.83482585  0.24620440     0.95400
O1301       O  0.96517794  0.81819472  0.25427230    -0.73070
O1302       O  0.98542420  0.82867813  0.19425821    -0.76670
Al1303     Al  0.00688752  0.82650752  0.23693999     1.48980
C1304       C  0.00038484  0.83851337  0.16807108     0.90650
O1305       O  0.98965592  0.91932154  0.19411903    -0.82890
O1306       O  0.02121329  0.90585503  0.28974244    -0.76450
Al1307     Al  0.03023786  0.89517485  0.21065190     1.90120
O1308       O  0.97245949  0.92790932  0.24617120    -0.75510
O1309       O  0.98420929  0.85432947  0.30417545    -0.75360
O1310       O  0.93949676  0.86707160  0.25058423    -0.81030
O1311       O  0.02545384  0.82380434  0.28284874    -0.79230
O1312       O  0.00570544  0.87023266  0.23918970    -1.15360
O1313       O  0.04964747  0.82473411  0.21610626    -0.74560
C1314       C  0.07459867  0.84038972  0.22750638     0.96160
C1315       C  0.96971524  0.93353586  0.21509597     0.92560
Al1316     Al  0.98091291  0.88828560  0.27057251     1.55560
O1317       O  0.02311821  0.86200133  0.17083613    -0.79180
C1318       C  0.00542721  0.83097645  0.30753548     0.96720
C1319       C  0.03415862  0.93182406  0.27667094     0.91600
O1320       O  0.03908713  0.93243361  0.24459135    -0.84500
O1321       O  0.87819102  0.00031361  0.16896713    -0.83960
C1322       C  0.84239003  0.98426085  0.30305919     0.95400
O1323       O  0.82573936  0.97530388  0.27805759    -0.73070
O1324       O  0.83620163  0.03486497  0.25690901    -0.76670
Al1325     Al  0.83358445  0.99211223  0.23608150     1.48980
C1326       C  0.84561435  0.06086231  0.24142770     0.90650
O1327       O  0.92700307  0.03602979  0.24983770    -0.82890
O1328       O  0.91340546  0.93945212  0.22208227    -0.76450
Al1329     Al  0.90160788  0.01826586  0.21076010     1.90120
O1330       O  0.93519720  0.98470982  0.26957486    -0.75510
O1331       O  0.86199108  0.92547989  0.25945943    -0.75360
O1332       O  0.87467835  0.98032487  0.30311243    -0.81030
O1333       O  0.83079398  0.94601367  0.21826464    -0.79230
O1334       O  0.87735240  0.99012590  0.23655748    -1.15360
O1335       O  0.83094655  0.01238173  0.19318181    -0.74560
C1336       C  0.84600772  0.00029520  0.16823785     0.96160
C1337       C  0.94181085  0.01581548  0.27010280     0.92560
Al1338     Al  0.89583993  0.95952664  0.26192393     1.55560
O1339       O  0.86844248  0.05799895  0.21806380    -0.79180
C1340       C  0.83820958  0.92176869  0.23873453     0.96720
C1341       C  0.93864808  0.95255955  0.20779937     0.91600
O1342       O  0.93864135  0.98445018  0.20181373    -0.84500
O1343       O  0.32391227  0.25331110  0.62028422    -0.83960
C1344       C  0.19136025  0.23614487  0.57988654     0.95400
O1345       O  0.21706148  0.22780441  0.56396274    -0.73070
O1346       O  0.23730195  0.28760091  0.57519830    -0.76670
Al1347     Al  0.25850945  0.24488644  0.57339897     1.48980
C1348       C  0.25214181  0.31367193  0.58552863     0.90650
O1349       O  0.24033238  0.28776547  0.66700191    -0.82890
O1350       O  0.26980992  0.19175755  0.65299094    -0.76450
Al1351     Al  0.28075798  0.27062923  0.64260025     1.90120
O1352       O  0.22016297  0.23642592  0.67358786    -0.75510
O1353       O  0.23470001  0.17773119  0.60046742    -0.75360
O1354       O  0.19007062  0.23180708  0.61201494    -0.81030
O1355       O  0.27687038  0.19882855  0.57106882    -0.79230
O1356       O  0.25616429  0.24261291  0.61712691    -1.15360
O1357       O  0.30131481  0.26567451  0.57238874    -0.74560
C1358       C  0.32601467  0.25391614  0.58809271     0.96160
C1359       C  0.21923252  0.26746649  0.68062983     0.92560
Al1360     Al  0.23041023  0.21153438  0.63438226     1.55560
O1361       O  0.27433321  0.31074847  0.60953362    -0.79180
C1362       C  0.25642532  0.17427729  0.57757883     0.96720
C1363       C  0.28328036  0.20444730  0.67881352     0.91600
O1364       O  0.28871265  0.23642416  0.67966419    -0.84500
O1365       O  0.07859762  0.86333791  0.49571073    -0.83960
C1366       C  0.94434607  0.90094007  0.48172628     0.95400
O1367       O  0.96945797  0.91735140  0.47240032    -0.73070
O1368       O  0.99164983  0.90674681  0.53141359    -0.76670
Al1369     Al  0.01184815  0.90887158  0.48843918     1.48980
C1370       C  0.00714235  0.89691754  0.55723954     0.90650
O1371       O  0.99712185  0.81600456  0.53277345    -0.82890
O1372       O  0.02376315  0.82924938  0.43588266    -0.76450
Al1373     Al  0.03646824  0.84048704  0.51427526     1.90120
O1374       O  0.97661331  0.80770153  0.48187228    -0.75510
O1375       O  0.98685171  0.88081487  0.42244014    -0.75360
O1376       O  0.94391577  0.86864349  0.47786349    -0.81030
O1377       O  0.02914588  0.91103527  0.44216486    -0.79230
O1378       O  0.01059801  0.86515665  0.48663321    -1.15360
O1379       O  0.05521815  0.91101400  0.50800875    -0.74560
C1380       C  0.08000708  0.89558724  0.49596412     0.96160
C1381       C  0.97608579  0.80165004  0.51305993     0.92560
Al1382     Al  0.98444146  0.84705098  0.45650643     1.55560
O1383       O  0.03028435  0.87383480  0.55407304    -0.79180
C1384       C  0.00820495  0.90395638  0.41825325     0.96720
C1385       C  0.03720951  0.80334200  0.44846562     0.91600
O1386       O  0.04398900  0.80300363  0.48020872    -0.84500
O1387       O  0.87645017  0.00198039  0.56216041    -0.83960
C1388       C  0.91246985  0.98526488  0.42814356     0.95400
O1389       O  0.92923258  0.97679805  0.45325902    -0.73070
O1390       O  0.91817599  0.03643950  0.47407216    -0.76670
Al1391     Al  0.92120920  0.99376970  0.49512260     1.48980
C1392       C  0.90857278  0.06240615  0.48952689     0.90650
O1393       O  0.82733789  0.03662480  0.48099827    -0.82890
O1394       O  0.84223136  0.94038927  0.50949414    -0.76450
Al1395     Al  0.85285942  0.01935682  0.52022441     1.90120
O1396       O  0.81968268  0.98508604  0.46166691    -0.75510
O1397       O  0.89347780  0.92671968  0.47210053    -0.75360
O1398       O  0.88022081  0.98106073  0.42812945    -0.81030
O1399       O  0.92449272  0.94771209  0.51318654    -0.79230
O1400       O  0.87748295  0.99135133  0.49461584    -1.15360
O1401       O  0.92361694  0.01437003  0.53790255    -0.74560
C1402       C  0.90863532  0.00245907  0.56297368     0.96160
C1403       C  0.81276604  0.01612458  0.46087155     0.92560
Al1404     Al  0.85935088  0.96038347  0.46946763     1.55560
O1405       O  0.88563573  0.05942292  0.51278246    -0.79180
C1406       C  0.91720744  0.92325043  0.49290277     0.96720
C1407       C  0.81667790  0.95312969  0.52349695     0.91600
O1408       O  0.81613006  0.98507416  0.52927950    -0.84500
O1409       O  0.06806132  0.00370375  0.61111630    -0.83960
C1410       C  0.93221051  0.98415455  0.58576460     0.95400
O1411       O  0.95691160  0.97237187  0.57003257    -0.73070
O1412       O  0.98215126  0.03875817  0.56960118    -0.76670
Al1413     Al  0.99994574  0.99250848  0.57170450     1.48980
C1414       C  0.00287493  0.06299253  0.57640772     0.90650
O1415       O  0.98894996  0.04528694  0.65191901    -0.82890
O1416       O  0.01532352  0.94810775  0.66449894    -0.76450
Al1417     Al  0.02775830  0.02474080  0.63320690     1.90120
O1418       O  0.96857974  0.00035618  0.67729799    -0.75510
O1419       O  0.98258650  0.92656394  0.60692639    -0.75360
O1420       O  0.93387455  0.98442845  0.61788471    -0.81030
O1421       O  0.02067961  0.94961171  0.57370930    -0.79230
O1422       O  0.00155962  0.99438622  0.61537160    -1.15360
O1423       O  0.04188841  0.00908878  0.56279808    -0.74560
C1424       C  0.06725059  0.99995472  0.57888361     0.96160
C1425       C  0.97520168  0.03215113  0.67734221     0.92560
Al1426     Al  0.97613595  0.96636338  0.64017415     1.55560
O1427       O  0.02450873  0.05903505  0.59939118    -0.79180
C1428       C  0.00561711  0.92357871  0.58375956     0.96720
C1429       C  0.03619379  0.96792909  0.67877689     0.91600
O1430       O  0.03619029  0.99906554  0.67209174    -0.84500
O1431       O  0.13543221  0.92055094  0.47778322    -0.83960
C1432       C  0.09706855  0.05423624  0.49402573     0.95400
O1433       O  0.08076566  0.02884629  0.50272934    -0.73070
O1434       O  0.09146193  0.00786582  0.44315467    -0.76670
Al1435     Al  0.08941700  0.98688396  0.48595643     1.48980
C1436       C  0.10108003  0.99253834  0.41714301     0.90650
O1437       O  0.18246637  0.00337998  0.44274024    -0.82890
O1438       O  0.16884998  0.97416793  0.53897351    -0.76450
Al1439     Al  0.15808528  0.96322613  0.46011951     1.90120
O1440       O  0.19053177  0.02214713  0.49434039    -0.75510
O1441       O  0.11724208  0.01082753  0.55252215    -0.75360
O1442       O  0.12933895  0.05480456  0.49811860    -0.81030
O1443       O  0.08704520  0.96887362  0.53201347    -0.79230
O1444       O  0.13313061  0.98832011  0.48810486    -1.15360
O1445       O  0.08767047  0.94378378  0.46563821    -0.74560
C1446       C  0.10321027  0.91895614  0.47748654     0.96160
C1447       C  0.19673987  0.02374956  0.46328462     0.92560
Al1448     Al  0.15101019  0.01388593  0.51890988     1.55560
O1449       O  0.12466140  0.96980950  0.42008446    -0.79180
C1450       C  0.09420905  0.98935828  0.55631881     0.96720
C1451       C  0.19491207  0.96102273  0.52638554     0.91600
O1452       O  0.19554089  0.95513684  0.49442498    -0.84500
O1453       O  0.99461922  0.12243512  0.41495572    -0.83960
C1454       C  0.01313380  0.08534625  0.54885996     0.95400
O1455       O  0.02126050  0.06868900  0.52350434    -0.73070
O1456       O  0.96140135  0.07912118  0.50287853    -0.76670
Al1457     Al  0.00403841  0.07680406  0.48159748     1.48980
C1458       C  0.93522718  0.08894333  0.48787165     0.90650
O1459       O  0.96048772  0.16934752  0.49856291    -0.82890
O1460       O  0.05648594  0.15603086  0.46679569    -0.76450
Al1461     Al  0.97750169  0.14526443  0.45775656     1.90120
O1462       O  0.01255867  0.17865964  0.51498205    -0.75510
O1463       O  0.07102348  0.10485377  0.50445079    -0.75360
O1464       O  0.01716015  0.11767751  0.54888843    -0.81030
O1465       O  0.04997168  0.07414647  0.46319497    -0.79230
O1466       O  0.00608471  0.12049883  0.48248481    -1.15360
O1467       O  0.98334469  0.07467022  0.43878843    -0.74560
C1468       C  0.99468678  0.09014399  0.41370334     0.96160
C1469       C  0.98140854  0.18339659  0.51871109     0.92560
Al1470     Al  0.03724899  0.13879221  0.50727984     1.55560
O1471       O  0.93793134  0.11210046  0.46483235    -0.79180
C1472       C  0.07452259  0.08138907  0.48336871     0.96720
C1473       C  0.04346227  0.18214818  0.45407266     0.91600
O1474       O  0.01138979  0.18268722  0.44892106    -0.84500
O1475       O  0.92914629  0.26186652  0.61164743    -0.83960
C1476       C  0.05457737  0.23962610  0.65741620     0.95400
O1477       O  0.02553512  0.23603501  0.67114810    -0.73070
O1478       O  0.97212099  0.27385904  0.66358044    -0.76670
Al1479     Al  0.98173181  0.22685211  0.65349292     1.48980
C1480       C  0.98558647  0.30088967  0.65240799     0.90650
O1481       O  0.01304187  0.28245370  0.56094917    -0.82890
O1482       O  0.99278863  0.18745573  0.57415396    -0.76450
Al1483     Al  0.97451383  0.26730445  0.58822394     1.90120
O1484       O  0.03838862  0.23422479  0.56028645    -0.75510
O1485       O  0.03276168  0.17334815  0.62769740    -0.75360
O1486       O  0.06005108  0.23351988  0.62581047    -0.81030
O1487       O  0.98608907  0.17889568  0.65363728    -0.79230
O1488       O  0.99556717  0.23576965  0.61325760    -1.15360
O1489       O  0.93900383  0.21449380  0.63656017    -0.74560
C1490       C  0.91878328  0.23751131  0.63034915     0.96160
C1491       C  0.03570535  0.26354950  0.54935583     0.92560
Al1492     Al  0.02730014  0.21006247  0.59787195     1.55560
O1493       O  0.98900379  0.30383307  0.62050218    -0.79180
C1494       C  0.01271533  0.16279840  0.64906358     0.96720
C1495       C  0.97469804  0.20080408  0.55098699     0.91600
O1496       O  0.96334442  0.23161531  0.55320082    -0.84500
O1497       O  0.12314301  0.31601951  0.48017358    -0.83960
C1498       C  0.16250084  0.18198897  0.49424526     0.95400
O1499       O  0.17869174  0.20753365  0.50290807    -0.73070
O1500       O  0.16727965  0.22948086  0.44425925    -0.76670
Al1501     Al  0.16954844  0.24982737  0.48697527     1.48980
C1502       C  0.15736536  0.24500558  0.41852978     0.90650
O1503       O  0.07676383  0.23376510  0.44315130    -0.82890
O1504       O  0.09149444  0.26091565  0.53944746    -0.76450
Al1505     Al  0.10071032  0.27349523  0.46161197     1.90120
O1506       O  0.06914505  0.21339180  0.49420813    -0.75510
O1507       O  0.14217351  0.22426382  0.55278661    -0.75360
O1508       O  0.13023976  0.18117935  0.49796654    -0.81030
O1509       O  0.17164369  0.26719565  0.53319029    -0.79230
O1510       O  0.12601917  0.24784739  0.48888093    -1.15360
O1511       O  0.17103032  0.29338053  0.46739991    -0.74560
C1512       C  0.15536156  0.31801415  0.47953175     0.96160
C1513       C  0.06286388  0.21263116  0.46309136     0.92560
Al1514     Al  0.10858271  0.22155167  0.51910271     1.55560
O1515       O  0.13401122  0.26790775  0.42166245    -0.79180
C1516       C  0.16458702  0.24626547  0.55712756     0.96720
C1517       C  0.06466682  0.27311198  0.52791779     0.91600
O1518       O  0.06306931  0.28014143  0.49623379    -0.84500
O1519       O  0.26426687  0.11473416  0.41618517    -0.83960
C1520       C  0.24637983  0.15188446  0.54999444     0.95400
O1521       O  0.23793970  0.16833284  0.52459449    -0.73070
O1522       O  0.29764462  0.15778553  0.50426017    -0.76670
Al1523     Al  0.25527301  0.16000295  0.48274343     1.48980
C1524       C  0.32387170  0.14834414  0.48923917     0.90650
O1525       O  0.29917898  0.06720049  0.49858291    -0.82890
O1526       O  0.20309412  0.08018594  0.46875607    -0.76450
Al1527     Al  0.28186687  0.09177865  0.45866167     1.90120
O1528       O  0.24758361  0.05866872  0.51724184    -0.75510
O1529       O  0.18857470  0.13168238  0.50547622    -0.75360
O1530       O  0.24257384  0.11955269  0.55018065    -0.81030
O1531       O  0.20962570  0.16216001  0.46403597    -0.79230
O1532       O  0.25343123  0.11626808  0.48376180    -1.15360
O1533       O  0.27601681  0.16230624  0.43995063    -0.74560
C1534       C  0.26418052  0.14699047  0.41501581     0.96160
C1535       C  0.27874589  0.05279232  0.51891907     0.92560
Al1536     Al  0.22251440  0.09798878  0.50883585     1.55560
O1537       O  0.32140647  0.12526720  0.46601888    -0.79180
C1538       C  0.18507585  0.15489210  0.48408683     0.96720
C1539       C  0.21619834  0.05449106  0.45532670     0.91600
O1540       O  0.24819155  0.05426374  0.44986470    -0.84500
O1541       O  0.32780833  0.98474858  0.60928050    -0.83960
C1542       C  0.19326368  0.99974120  0.64665773     0.95400
O1543       O  0.21861966  0.00818093  0.66312960    -0.73070
O1544       O  0.24042122  0.94888488  0.65168738    -0.76670
Al1545     Al  0.26084516  0.99186421  0.65449080     1.48980
C1546       C  0.25608496  0.92315508  0.64173277     0.90650
O1547       O  0.24598354  0.94924785  0.56062766    -0.82890
O1548       O  0.27328339  0.04575860  0.57529023    -0.76450
Al1549     Al  0.28552016  0.96692996  0.58584002     1.90120
O1550       O  0.22589306  0.00053713  0.55335204    -0.75510
O1551       O  0.23652775  0.05860074  0.62713486    -0.75360
O1552       O  0.19297780  0.00387495  0.61439554    -0.81030
O1553       O  0.27832837  0.03808237  0.65757744    -0.79230
O1554       O  0.25976682  0.99444364  0.61078285    -1.15360
O1555       O  0.30408693  0.97186981  0.65655416    -0.74560
C1556       C  0.32911245  0.98386913  0.64151252     0.96160
C1557       C  0.22523111  0.96951868  0.54647646     0.92560
Al1558     Al  0.23386177  0.02511687  0.59301051     1.55560
O1559       O  0.27902469  0.92659508  0.61853646    -0.79180
C1560       C  0.25758067  0.06225067  0.65059180     0.96720
C1561       C  0.28705633  0.03324866  0.54950587     0.91600
O1562       O  0.29359983  0.00144345  0.54900593    -0.84500
O1563       O  0.99250206  0.93081404  0.36400694    -0.83960
C1564       C  0.01280522  0.06680686  0.39018407     0.95400
O1565       O  0.02507775  0.04202415  0.40549495    -0.73070
O1566       O  0.95891575  0.01637437  0.40734890    -0.76670
Al1567     Al  0.00515134  0.99873655  0.40406210     1.48980
C1568       C  0.93455761  0.99576441  0.40067649     0.90650
O1569       O  0.95060501  0.01144337  0.32616190    -0.82890
O1570       O  0.04672161  0.98287074  0.31029794    -0.76450
Al1571     Al  0.97116275  0.97167898  0.34313586     1.90120
O1572       O  0.99438207  0.03061874  0.29836458    -0.75510
O1573       O  0.07021842  0.01639578  0.36747363    -0.75360
O1574       O  0.01196060  0.06524958  0.35799274    -0.81030
O1575       O  0.04817469  0.97816964  0.40119060    -0.79230
O1576       O  0.00220871  0.99734879  0.36046174    -1.15360
O1577       O  0.98895202  0.95657263  0.41283154    -0.74560
C1578       C  0.99724510  0.93125022  0.39615763     0.96160
C1579       C  0.96249199  0.02457302  0.29981579     0.92560
Al1580     Al  0.02948841  0.02275607  0.33500281     1.55560
O1581       O  0.93810074  0.97427778  0.37760936    -0.79180
C1582       C  0.07389047  0.99357993  0.39083923     0.96720
C1583       C  0.02611683  0.96233646  0.29641577     0.91600
O1584       O  0.99512593  0.96369945  0.30311885    -0.84500
O1585       O  0.38209575  0.23654101  0.56373800    -0.83960
C1586       C  0.34541079  0.25210290  0.42931016     0.95400
O1587       O  0.32874203  0.26071755  0.45447991    -0.73070
O1588       O  0.33988093  0.20130834  0.47593372    -0.76670
Al1589     Al  0.33704180  0.24417172  0.49665440     1.48980
C1590       C  0.34997185  0.17538618  0.49119849     0.90650
O1591       O  0.42998832  0.20100067  0.48187462    -0.82890
O1592       O  0.41631205  0.29749924  0.50987111    -0.76450
Al1593     Al  0.40540301  0.21872268  0.52145669     1.90120
O1594       O  0.43819406  0.25235649  0.46237228    -0.75510
O1595       O  0.36475000  0.31094684  0.47285727    -0.75360
O1596       O  0.37762879  0.25631928  0.42918430    -0.81030
O1597       O  0.33408333  0.29031234  0.51439986    -0.79230
O1598       O  0.38069237  0.24656423  0.49583130    -1.15360
O1599       O  0.33478956  0.22401304  0.53980194    -0.74560
C1600       C  0.34984827  0.23591227  0.56489655     0.96160
C1601       C  0.44404711  0.22116607  0.46108129     0.92560
Al1602     Al  0.39874017  0.27725990  0.47020479     1.55560
O1603       O  0.37268149  0.17865743  0.51462169    -0.79180
C1604       C  0.34127643  0.31460562  0.49389210     0.96720
C1605       C  0.44220934  0.28473638  0.52318510     0.91600
O1606       O  0.44253569  0.25290507  0.52962849    -0.84500
O1607       O  0.18003225  0.37392966  0.49744082    -0.83960
C1608       C  0.31409324  0.33678312  0.48279257     0.95400
O1609       O  0.28899053  0.32021556  0.47377941    -0.73070
O1610       O  0.26707952  0.33066514  0.53314575    -0.76670
Al1611     Al  0.24677815  0.32852042  0.49000989     1.48980
C1612       C  0.25138441  0.34044974  0.55890573     0.90650
O1613       O  0.26234602  0.42175084  0.53342440    -0.82890
O1614       O  0.23442361  0.40832578  0.43682226    -0.76450
Al1615     Al  0.22243316  0.39704678  0.51556393     1.90120
O1616       O  0.28182935  0.42994159  0.48212773    -0.75510
O1617       O  0.27125663  0.35637824  0.42353639    -0.75360
O1618       O  0.31450894  0.36901750  0.47852443    -0.81030
O1619       O  0.22930086  0.32605622  0.44378453    -0.79230
O1620       O  0.24797405  0.37229322  0.48784095    -1.15360
O1621       O  0.20350138  0.32630551  0.50977704    -0.74560
C1622       C  0.17860587  0.34163111  0.49784358     0.96160
C1623       C  0.28307001  0.43606517  0.51323465     0.92560
Al1624     Al  0.27383975  0.39038937  0.45730023     1.55560
O1625       O  0.22863981  0.36388197  0.55557440    -0.79180
C1626       C  0.25002487  0.33308328  0.41967542     0.96720
C1627       C  0.22096198  0.43415617  0.44963415     0.91600
O1628       O  0.21452926  0.43436148  0.48144159    -0.84500
O1629       O  0.24542726  0.17161199  0.35978018    -0.83960
C1630       C  0.26088756  0.30573639  0.39756369     0.95400
O1631       O  0.26929099  0.28044005  0.41418205    -0.73070
O1632       O  0.21002940  0.25904546  0.40258890    -0.76670
Al1633     Al  0.25292766  0.23829579  0.40562108     1.48980
C1634       C  0.18420146  0.24375717  0.39234964     0.90650
O1635       O  0.20993113  0.25377080  0.31267344    -0.82890
O1636       O  0.30616844  0.22524868  0.32661186    -0.76450
Al1637     Al  0.22753527  0.21396760  0.33703810     1.90120
O1638       O  0.26132740  0.27322302  0.30473860    -0.75510
O1639       O  0.31983780  0.26226709  0.37835988    -0.75360
O1640       O  0.26532039  0.30605697  0.36538824    -0.81030
O1641       O  0.29907494  0.22064745  0.40879759    -0.79230
O1642       O  0.25540000  0.23940252  0.36201065    -1.15360
O1643       O  0.23313608  0.19496078  0.40744386    -0.74560
C1644       C  0.24533701  0.17022270  0.39196898     0.96160
C1645       C  0.23018135  0.27454160  0.29869311     0.92560
Al1646     Al  0.28616177  0.26505091  0.34421502     1.55560
O1647       O  0.18760508  0.22042956  0.36961860    -0.79180
C1648       C  0.32336779  0.24120340  0.40186632     0.96720
C1649       C  0.29327304  0.21193451  0.30077424     0.91600
O1650       O  0.26146977  0.20590606  0.30022998    -0.84500
O1651       O  0.51076321  0.17158222  0.37109928    -0.83960
C1652       C  0.49532364  0.30553874  0.33263950     0.95400
O1653       O  0.48650634  0.28022206  0.31626132    -0.73070
O1654       O  0.54577949  0.25859397  0.32725333    -0.76670
Al1655     Al  0.50288584  0.23801469  0.32494417     1.48980
C1656       C  0.57164035  0.24314182  0.33712570     0.90650
O1657       O  0.54667432  0.25380517  0.41752673    -0.82890
O1658       O  0.45016180  0.22563979  0.40458043    -0.76450
Al1659     Al  0.52880086  0.21398798  0.39348447     1.90120
O1660       O  0.49536211  0.27341066  0.42575240    -0.75510
O1661       O  0.43632642  0.26238746  0.35260685    -0.75360
O1662       O  0.49118916  0.30602948  0.36486819    -0.81030
O1663       O  0.45671216  0.22038077  0.32243224    -0.79230
O1664       O  0.50081726  0.23937169  0.36859583    -1.15360
O1665       O  0.52275636  0.19473346  0.32323296    -0.74560
C1666       C  0.51083463  0.17002589  0.33892290     0.96160
C1667       C  0.52653211  0.27457353  0.43167463     0.92560
Al1668     Al  0.47026672  0.26522261  0.38649723     1.55560
O1669       O  0.56852973  0.22017246  0.36031691    -0.79180
C1670       C  0.43253343  0.24110075  0.32934388     0.96720
C1671       C  0.46309866  0.21237855  0.43045353     0.91600
O1672       O  0.49494049  0.20622814  0.43078707    -0.84500
O1673       O  0.57588223  0.36453350  0.49878060    -0.83960
C1674       C  0.44216417  0.40296311  0.48256753     0.95400
O1675       O  0.46751363  0.41936280  0.47394367    -0.73070
O1676       O  0.48872409  0.40835896  0.53335498    -0.76670
Al1677     Al  0.50954201  0.41067660  0.49059252     1.48980
C1678       C  0.50388165  0.39831664  0.55932678     0.90650
O1679       O  0.49361782  0.31797714  0.53436543    -0.82890
O1680       O  0.52219353  0.33105671  0.43796910    -0.76450
Al1681     Al  0.53343253  0.34205579  0.51660873     1.90120
O1682       O  0.47409567  0.30975699  0.48304914    -0.75510
O1683       O  0.48559424  0.38294370  0.42391737    -0.75360
O1684       O  0.44168698  0.37070551  0.47848894    -0.81030
O1685       O  0.52743119  0.41319812  0.44450452    -0.79230
O1686       O  0.50818740  0.36697943  0.48853369    -1.15360
O1687       O  0.55262289  0.41239305  0.51074605    -0.74560
C1688       C  0.57739868  0.39674968  0.49893729     0.96160
C1689       C  0.47282144  0.30388026  0.51424640     0.92560
Al1690     Al  0.48252661  0.34905762  0.45786901     1.55560
O1691       O  0.52695026  0.37519621  0.55632148    -0.79180
C1692       C  0.50689224  0.40621071  0.42020292     0.96720
C1693       C  0.53533888  0.30512076  0.45087279     0.91600
O1694       O  0.54134657  0.30471119  0.48273860    -0.84500
O1695       O  0.36901433  0.99967314  0.06467556    -0.83960
C1696       C  0.40825159  0.98406131  0.93095099     0.95400
O1697       O  0.42450167  0.97529676  0.95640901    -0.73070
O1698       O  0.41370041  0.03474820  0.97805289    -0.76670
Al1699     Al  0.41553268  0.99169531  0.99859301     1.48980
C1700       C  0.40353298  0.06067253  0.99327967     0.90650
O1701       O  0.32327318  0.03539002  0.98136085    -0.82890
O1702       O  0.33593403  0.93882410  0.01010104    -0.76450
Al1703     Al  0.34679201  0.01757248  0.02173592     1.90120
O1704       O  0.31493843  0.98398627  0.96210623    -0.75510
O1705       O  0.38802069  0.92509432  0.97395579    -0.75360
O1706       O  0.37605546  0.97987529  0.93021519    -0.81030
O1707       O  0.41762469  0.94546019  0.01636117    -0.79230
O1708       O  0.37191561  0.98963360  0.99672578    -1.15360
O1709       O  0.41702368  0.01168819  0.04186081    -0.74560
C1710       C  0.40124915  0.00014152  0.06667604     0.96160
C1711       C  0.30950222  0.01521733  0.96032736     0.92560
Al1712     Al  0.35421797  0.95897472  0.97073925     1.55560
O1713       O  0.38000667  0.05747952  0.01589342    -0.79180
C1714       C  0.41085131  0.92120961  0.99566080     0.96720
C1715       C  0.30967161  0.95160780  0.02259335     0.91600
O1716       O  0.30921604  0.98347928  0.02895001    -0.84500
O1717       O  0.37316435  0.23521076  0.16794604    -0.83960
C1718       C  0.41044363  0.25190062  0.30190221     0.95400
O1719       O  0.42712222  0.26029333  0.27666984    -0.73070
O1720       O  0.41595612  0.20068255  0.25566828    -0.76670
Al1721     Al  0.41879530  0.24343175  0.23466982     1.48980
C1722       C  0.40591791  0.17468213  0.24050681     0.90650
O1723       O  0.32621363  0.20029353  0.24971417    -0.82890
O1724       O  0.33993250  0.29654330  0.22065679    -0.76450
Al1725     Al  0.35036771  0.21772292  0.21013399     1.90120
O1726       O  0.31777734  0.25186953  0.26861777    -0.75510
O1727       O  0.39116081  0.31048162  0.25798582    -0.75360
O1728       O  0.37821916  0.25617341  0.30201326    -0.81030
O1729       O  0.42178729  0.28953013  0.21661419    -0.79230
O1730       O  0.37519620  0.24580585  0.23549267    -1.15360
O1731       O  0.42070318  0.22301652  0.19176046    -0.74560
C1732       C  0.40533506  0.23487218  0.16683312     0.96160
C1733       C  0.31217842  0.22063897  0.27025535     0.92560
Al1734     Al  0.35719750  0.27675375  0.26073685     1.55560
O1735       O  0.38316400  0.17778607  0.21711043    -0.79180
C1736       C  0.41460391  0.31401477  0.23691017     0.96720
C1737       C  0.31394571  0.28383128  0.20749768     0.91600
O1738       O  0.31326558  0.25187936  0.20173976    -0.84500
O1739       O  0.57578960  0.37314757  0.23171785    -0.83960
C1740       C  0.44179955  0.33636077  0.24773411     0.95400
O1741       O  0.46696075  0.31985595  0.25666645    -0.73070
O1742       O  0.48818165  0.33026387  0.19705780    -0.76670
Al1743     Al  0.50895757  0.32800643  0.23991168     1.48980
C1744       C  0.50365175  0.33981203  0.17109828     0.90650
O1745       O  0.49383099  0.42111452  0.19608727    -0.82890
O1746       O  0.52215570  0.40792364  0.29257415    -0.76450
Al1747     Al  0.53350183  0.39632575  0.21383501     1.90120
O1748       O  0.47445689  0.42951225  0.24741271    -0.75510
O1749       O  0.48523337  0.35622046  0.30648223    -0.75360
O1750       O  0.44148629  0.36865660  0.25170673    -0.81030
O1751       O  0.52682133  0.32547635  0.28603558    -0.79230
O1752       O  0.50802020  0.37178735  0.24190044    -1.15360
O1753       O  0.55193053  0.32566470  0.21962799    -0.74560
C1754       C  0.57693821  0.34087617  0.23141418     0.96160
C1755       C  0.47329616  0.43560969  0.21627193     0.92560
Al1756     Al  0.48246876  0.39008127  0.27250071     1.55560
O1757       O  0.52668362  0.36300892  0.17405050    -0.79180
C1758       C  0.50629924  0.33273019  0.31028140     0.96720
C1759       C  0.53570874  0.43362779  0.27961676     0.91600
O1760       O  0.54185934  0.43373926  0.24774979    -0.84500
O1761       O  0.37376943  0.50369572  0.56241211    -0.83960
C1762       C  0.41179919  0.48796434  0.42870262     0.95400
O1763       O  0.42815387  0.47911271  0.45399940    -0.73070
O1764       O  0.41752195  0.53864351  0.47528904    -0.76670
Al1765     Al  0.41958912  0.49571431  0.49601939     1.48980
C1766       C  0.40794637  0.56459727  0.49077565     0.90650
O1767       O  0.32668847  0.53944492  0.48000593    -0.82890
O1768       O  0.33964678  0.44275708  0.50838820    -0.76450
Al1769     Al  0.35105367  0.52165306  0.51992426     1.90120
O1770       O  0.31849657  0.48803801  0.46061774    -0.75510
O1771       O  0.39170325  0.42911746  0.47192015    -0.75360
O1772       O  0.37955109  0.48391362  0.42817815    -0.81030
O1773       O  0.42197586  0.44956767  0.51382881    -0.79230
O1774       O  0.37585559  0.49364497  0.49466133    -1.15360
O1775       O  0.42149064  0.51585083  0.53913633    -0.74560
C1776       C  0.40599466  0.50399745  0.56394924     0.96160
C1777       C  0.31239446  0.51920219  0.45937205     0.92560
Al1778     Al  0.35784548  0.46300994  0.46891733     1.55560
O1779       O  0.38448601  0.56158775  0.51354123    -0.79180
C1780       C  0.41492607  0.42531935  0.49323783     0.96720
C1781       C  0.31377275  0.45559306  0.52173039     0.91600
O1782       O  0.31352126  0.48753328  0.52784746    -0.84500
O1783       O  0.51294177  0.56762792  0.36057478    -0.83960
C1784       C  0.49626241  0.43358485  0.39790406     0.95400
O1785       O  0.48774549  0.45892109  0.41439706    -0.73070
O1786       O  0.54744429  0.47985115  0.40368239    -0.76670
Al1787     Al  0.50465660  0.50089442  0.40600491     1.48980
C1788       C  0.57346319  0.49510481  0.39389616     0.90650
O1789       O  0.54779226  0.48500415  0.31300768    -0.82890
O1790       O  0.45150129  0.51419313  0.32639180    -0.76450
Al1791     Al  0.53042932  0.52502682  0.33751705     1.90120
O1792       O  0.49625974  0.46612546  0.30476438    -0.75510
O1793       O  0.43778821  0.47746042  0.37818614    -0.75360
O1794       O  0.49211047  0.43327813  0.36566508    -0.81030
O1795       O  0.45863744  0.51904741  0.40867159    -0.79230
O1796       O  0.50237329  0.49981330  0.36229331    -1.15360
O1797       O  0.52516198  0.54385467  0.40805870    -0.74560
C1798       C  0.51347785  0.56893631  0.39281865     0.96160
C1799       C  0.52738978  0.46447072  0.29881099     0.92560
Al1800     Al  0.47148334  0.47438690  0.34425170     1.55560
O1801       O  0.57044606  0.51811037  0.37064788    -0.79180
C1802       C  0.43421340  0.49867725  0.40153062     0.96720
C1803       C  0.46430389  0.52744957  0.30048237     0.91600
O1804       O  0.49624234  0.53339688  0.30014904    -0.84500
O1805       O  0.18090190  0.36458282  0.23135538    -0.83960
C1806       C  0.31468100  0.40286954  0.24716011     0.95400
O1807       O  0.28935324  0.41931221  0.25577234    -0.73070
O1808       O  0.26807778  0.40806103  0.19646079    -0.76670
Al1809     Al  0.24731125  0.41060602  0.23922084     1.48980
C1810       C  0.25279328  0.39806341  0.17056785     0.90650
O1811       O  0.26294044  0.31756925  0.19590307    -0.82890
O1812       O  0.23475340  0.33107127  0.29227932    -0.76450
Al1813     Al  0.22325907  0.34192545  0.21356820     1.90120
O1814       O  0.28257062  0.30971801  0.24725625    -0.75510
O1815       O  0.27133621  0.38306515  0.30594953    -0.75360
O1816       O  0.31514255  0.37061514  0.25134930    -0.81030
O1817       O  0.22951413  0.41336243  0.28530967    -0.79230
O1818       O  0.24859652  0.36690013  0.24149627    -1.15360
O1819       O  0.20420811  0.41232395  0.21910264    -0.74560
C1820       C  0.17943693  0.39679387  0.23103948     0.96160
C1821       C  0.28360561  0.30343844  0.21615133     0.92560
Al1822     Al  0.27431169  0.34906267  0.27218675     1.55560
O1823       O  0.22974540  0.37494330  0.17367892    -0.79180
C1824       C  0.25009915  0.40640803  0.30958771     0.96720
C1825       C  0.22150021  0.30514975  0.27945165     0.91600
O1826       O  0.21532594  0.30473374  0.24761550    -0.84500
O1827       O  0.07456550  0.35934943  0.99989579    -0.83960
C1828       C  0.94106348  0.39750325  0.98368207     0.95400
O1829       O  0.96636752  0.41375254  0.97464494    -0.73070
O1830       O  0.98747486  0.40351391  0.03437994    -0.76670
Al1831     Al  0.00829543  0.40510916  0.99149714     1.48980
C1832       C  0.00274699  0.39374829  0.06040969     0.90650
O1833       O  0.99187652  0.31189124  0.03537584    -0.82890
O1834       O  0.01974368  0.32451706  0.93902716    -0.76450
Al1835     Al  0.03182517  0.33655530  0.01777356     1.90120
O1836       O  0.97210131  0.30428482  0.98402394    -0.75510
O1837       O  0.98430027  0.37708506  0.92491746    -0.75360
O1838       O  0.94033620  0.36528252  0.97967140    -0.81030
O1839       O  0.02642259  0.40700448  0.94545095    -0.79230
O1840       O  0.00667371  0.36130666  0.98964026    -1.15360
O1841       O  0.05126858  0.40707985  0.01191460    -0.74560
C1842       C  0.07619130  0.39163674  0.00026673     0.96160
C1843       C  0.97136740  0.29751683  0.01500286     0.92560
Al1844     Al  0.98079672  0.34332687  0.95898221     1.55560
O1845       O  0.02533059  0.37006724  0.05754438    -0.79180
C1846       C  0.00597660  0.40000445  0.92107334     0.96720
C1847       C  0.03269651  0.29872639  0.95236206     0.91600
O1848       O  0.03959263  0.29900190  0.98406032    -0.84500
O1849       O  0.38299919  0.50338377  0.16683127    -0.83960
C1850       C  0.34534420  0.48801798  0.30072244     0.95400
O1851       O  0.32888034  0.47920760  0.27547805    -0.73070
O1852       O  0.33947209  0.53862418  0.25392604    -0.76670
Al1853     Al  0.33732815  0.49564397  0.23337017     1.48980
C1854       C  0.34909895  0.56450664  0.23835750     0.90650
O1855       O  0.43040353  0.53918728  0.24920327    -0.82890
O1856       O  0.41686678  0.44257312  0.22090052    -0.76450
Al1857     Al  0.40586104  0.52138838  0.20929313     1.90120
O1858       O  0.43855274  0.48777857  0.26860432    -0.75510
O1859       O  0.36513680  0.42906019  0.25767176    -0.75360
O1860       O  0.37758183  0.48389266  0.30118065    -0.81030
O1861       O  0.33484058  0.44941168  0.21572645    -0.79230
O1862       O  0.38104486  0.49352394  0.23468194    -1.15360
O1863       O  0.33534833  0.51566459  0.19017668    -0.74560
C1864       C  0.35076031  0.50374085  0.16534125     0.96160
C1865       C  0.44472203  0.51892484  0.26985216     0.92560
Al1866     Al  0.39904723  0.46288118  0.26044117     1.55560
O1867       O  0.37254394  0.56139774  0.21559914    -0.79180
C1868       C  0.34190187  0.42520582  0.23638810     0.96720
C1869       C  0.44279901  0.45524668  0.20760382     0.91600
O1870       O  0.44324279  0.48715830  0.20140856    -0.84500
O1871       O  0.24447353  0.56793447  0.36870349    -0.83960
C1872       C  0.26088080  0.43380717  0.33172261     0.95400
O1873       O  0.26950170  0.45905296  0.31513782    -0.73070
O1874       O  0.20988024  0.48018189  0.32581712    -0.76670
Al1875     Al  0.25264791  0.50110743  0.32342046     1.48980
C1876       C  0.18389865  0.49549104  0.33563965     0.90650
O1877       O  0.20935090  0.48560390  0.41629948    -0.82890
O1878       O  0.30568987  0.51447480  0.40290429    -0.76450
Al1879     Al  0.22686665  0.52547343  0.39180888     1.90120
O1880       O  0.26078776  0.46646734  0.42469014    -0.75510
O1881       O  0.31945176  0.47758649  0.35129345    -0.75360
O1882       O  0.26505578  0.43356083  0.36394726    -0.81030
O1883       O  0.29864755  0.51919893  0.32077646    -0.79230
O1884       O  0.25488301  0.50010576  0.36711220    -1.15360
O1885       O  0.23220943  0.54408882  0.32127199    -0.74560
C1886       C  0.24394766  0.56915661  0.33646575     0.96160
C1887       C  0.22960840  0.46493279  0.43049695     0.92560
Al1888     Al  0.28570581  0.47464168  0.38522220     1.55560
O1889       O  0.18693243  0.51860523  0.35874346    -0.79180
C1890       C  0.32304020  0.49878911  0.32792783     0.96720
C1891       C  0.29289675  0.52778724  0.42877829     0.91600
O1892       O  0.26098251  0.53379492  0.42913313    -0.84500
O1893       O  0.88239627  0.49681822  0.66914339    -0.83960
C1894       C  0.84412680  0.48163266  0.80277825     0.95400
O1895       O  0.82771082  0.47281613  0.77750534    -0.73070
O1896       O  0.83895947  0.53221720  0.75614537    -0.76670
Al1897     Al  0.83647137  0.48929085  0.73549123     1.48980
C1898       C  0.84928116  0.55812706  0.74102522     0.90650
O1899       O  0.92975310  0.53228165  0.75075657    -0.82890
O1900       O  0.91545784  0.43548754  0.72376671    -0.76450
Al1901     Al  0.90515445  0.51451432  0.71143337     1.90120
O1902       O  0.93711538  0.48104507  0.77099947    -0.75510
O1903       O  0.86363093  0.42250748  0.75998972    -0.75360
O1904       O  0.87631990  0.47742459  0.80338803    -0.81030
O1905       O  0.83380833  0.44302594  0.71775021    -0.79230
O1906       O  0.88009191  0.48686625  0.73691684    -1.15360
O1907       O  0.83482197  0.50948889  0.69244244    -0.74560
C1908       C  0.85024429  0.49756482  0.66761730     0.96160
C1909       C  0.94383637  0.51211987  0.77148790     0.92560
Al1910     Al  0.89771414  0.45617009  0.76289529     1.55560
O1911       O  0.87241418  0.55481878  0.71798339    -0.79180
C1912       C  0.84064512  0.41871250  0.73840767     0.96720
C1913       C  0.94127158  0.44806633  0.71034375     0.91600
O1914       O  0.94188878  0.47989168  0.70376825    -0.84500
O1915       O  0.57799623  0.87239512  0.73498797    -0.83960
C1916       C  0.44370376  0.83440323  0.74836736     0.95400
O1917       O  0.46891914  0.81793309  0.75739383    -0.73070
O1918       O  0.49125464  0.82914222  0.69852446    -0.76670
Al1919     Al  0.51132196  0.82666785  0.74157946     1.48980
C1920       C  0.50688260  0.83922831  0.67288215     0.90650
O1921       O  0.49617239  0.91981729  0.69818062    -0.82890
O1922       O  0.52278078  0.90572608  0.79498656    -0.76450
Al1923     Al  0.53570459  0.89537099  0.71655601     1.90120
O1924       O  0.47564031  0.92765604  0.74912419    -0.75510
O1925       O  0.48606081  0.85403324  0.80779626    -0.75360
O1926       O  0.44317857  0.86664939  0.75251624    -0.81030
O1927       O  0.52850174  0.82408167  0.78791162    -0.79230
O1928       O  0.50987894  0.87034061  0.74384586    -1.15360
O1929       O  0.55477274  0.82480558  0.72208551    -0.74560
C1930       C  0.57957880  0.84012944  0.73422661     0.96160
C1931       C  0.47496469  0.93382902  0.71797421     0.92560
Al1932     Al  0.48358280  0.88807952  0.77410328     1.55560
O1933       O  0.52985830  0.86240639  0.67639246    -0.79180
C1934       C  0.50751631  0.83095617  0.81185312     0.96720
C1935       C  0.53592172  0.93191315  0.78275229     0.91600
O1936       O  0.54287453  0.93261947  0.75104839    -0.84500
O1937       O  0.18253989  0.86198784  0.72762469    -0.83960
C1938       C  0.31588562  0.89982132  0.74597584     0.95400
O1939       O  0.29051142  0.91636374  0.75419847    -0.73070
O1940       O  0.27007034  0.90591905  0.69429319    -0.76670
Al1941     Al  0.24877754  0.90808770  0.73698591     1.48980
C1942       C  0.25494470  0.89625439  0.66814867     0.90650
O1943       O  0.26541651  0.81536150  0.69360181    -0.82890
O1944       O  0.23466692  0.82846495  0.78948035    -0.76450
Al1945     Al  0.22515485  0.83953084  0.71050059     1.90120
O1946       O  0.28319515  0.80668755  0.74547845    -0.75510
O1947       O  0.27172655  0.88003676  0.80404273    -0.75360
O1948       O  0.31620437  0.86753964  0.75014146    -0.81030
O1949       O  0.23046269  0.91074050  0.78297530    -0.79230
O1950       O  0.24990145  0.86434326  0.73905459    -1.15360
O1951       O  0.20594882  0.90995311  0.71633000    -0.74560
C1952       C  0.18111197  0.89419531  0.72781823     0.96160
C1953       C  0.28543716  0.80096693  0.71435482     0.92560
Al1954     Al  0.27486348  0.84617042  0.77020692     1.55560
O1955       O  0.23213511  0.87285112  0.67086110    -0.79180
C1956       C  0.25062624  0.90349744  0.80754325     0.96720
C1957       C  0.22146765  0.80264395  0.77634062     0.91600
O1958       O  0.21641135  0.80218060  0.74428662    -0.84500
O1959       O  0.88367312  0.24396877  0.79915378    -0.83960
C1960       C  0.89357908  0.24191044  0.65753979     0.95400
O1961       O  0.90137595  0.26462497  0.67756027    -0.73070
O1962       O  0.90979252  0.30326402  0.72381887    -0.76670
Al1963     Al  0.91536647  0.25490360  0.72182225     1.48980
C1964       C  0.90813380  0.31788991  0.75159655     0.90650
O1965       O  0.83807087  0.29306429  0.72914739    -0.82890
O1966       O  0.82664357  0.19641325  0.75327661    -0.76450
Al1967     Al  0.85816854  0.26945873  0.76551970     1.90120
O1968       O  0.81604254  0.24791622  0.70205688    -0.75510
O1969       O  0.88501473  0.17623962  0.72679176    -0.75360
O1970       O  0.87458344  0.21802568  0.66817832    -0.81030
O1971       O  0.92889731  0.20819207  0.71547002    -0.79230
O1972       O  0.87542899  0.24414759  0.73423880    -1.15360
O1973       O  0.93095284  0.24789013  0.76714840    -0.74560
C1974       C  0.91605044  0.24045455  0.79496969     0.96160
C1975       C  0.81463230  0.27960152  0.71142234     0.94480
Al1976     Al  0.85187666  0.21214341  0.71334150     1.55560
O1977       O  0.89002216  0.30473880  0.77346502    -0.79180
C1978       C  0.91702121  0.17985587  0.72544703     0.96720
C1979       C  0.81122362  0.21599438  0.77292220     0.91600
O1980       O  0.81767035  0.24664201  0.77173885    -0.84500
O1981       O  0.13009153  0.18027743  0.72880130    -0.83960
C1982       C  0.09797941  0.31285926  0.75594543     0.95400
O1983       O  0.08462559  0.28812745  0.77079401    -0.73070
O1984       O  0.07595636  0.26300337  0.70767988    -0.76670
Al1985     Al  0.08682311  0.24441312  0.75092745     1.48980
C1986       C  0.08213455  0.24593545  0.68117801     0.90650
O1987       O  0.16209107  0.26438081  0.69014179    -0.82890
O1988       O  0.18157782  0.23252351  0.78498977    -0.76450
Al1989     Al  0.14646916  0.22326838  0.70965050     1.90120
O1990       O  0.19125989  0.28137744  0.73372431    -0.75510
O1991       O  0.12528203  0.26497114  0.81232191    -0.75360
O1992       O  0.13019262  0.31316145  0.75347714    -0.81030
O1993       O  0.09643610  0.22246371  0.79244028    -0.79230
O1994       O  0.12991342  0.24639926  0.74318492    -1.15360
O1995       O  0.07987988  0.20256013  0.73396273    -0.74560
C1996       C  0.09908294  0.17782323  0.73693094     0.96160
C1997       C  0.18926666  0.27630043  0.70169926     0.92560
Al1998     Al  0.15574651  0.27207419  0.76982113     1.55560
O1999       O  0.10805153  0.22718946  0.67968896    -0.79180
C2000       C  0.10411298  0.24034194  0.81728642     0.96720
C2001       C  0.19462631  0.21235011  0.76346850     0.91600
O2002       O  0.18785339  0.21495183  0.73234445    -0.84500
O2003       O  0.99535637  0.11240943  0.81058420    -0.83960
C2004       C  0.02553005  0.14343700  0.67715826     0.95400
O2005       O  0.03291671  0.16164905  0.70207762    -0.73070
O2006       O  0.97200474  0.16106670  0.72237731    -0.76670
Al2007     Al  0.01283003  0.15654509  0.74481417     1.48980
C2008       C  0.94373184  0.15335843  0.73452033     0.90650
O2009       O  0.96287450  0.06796776  0.72618140    -0.82890
O2010       O  0.05754603  0.07533885  0.76413837    -0.76450
Al2011     Al  0.97903179  0.09115786  0.76685151     1.90120
O2012       O  0.01484729  0.05353554  0.71256981    -0.75510
O2013       O  0.07869703  0.12434439  0.72556805    -0.75360
O2014       O  0.02705646  0.11124871  0.67911140    -0.81030
O2015       O  0.05611012  0.15275425  0.76703502    -0.79230
O2016       O  0.01046299  0.11302203  0.74344140    -1.15360
O2017       O  0.99051054  0.16089964  0.78629398    -0.74560
C2018       C  0.99857270  0.14442592  0.81200367     0.96160
C2019       C  0.98339854  0.05076294  0.70830915     0.92560
Al2020     Al  0.04248897  0.09176026  0.72174209     1.55560
O2021       O  0.94211736  0.12844979  0.75625374    -0.79180
C2022       C  0.08076458  0.14782135  0.74695721     0.96720
C2023       C  0.04274669  0.04935120  0.77449146     0.91600
O2024       O  0.01022466  0.05060202  0.77767190    -0.84500
O2025       O  0.26221436  0.12168072  0.81153071    -0.83960
C2026       C  0.24633118  0.08420592  0.67788757     0.95400
O2027       O  0.23757948  0.06754813  0.70303009    -0.73070
O2028       O  0.29719100  0.07842762  0.72426181    -0.76670
Al2029     Al  0.25428845  0.07602342  0.74504640     1.48980
C2030       C  0.32304781  0.08834612  0.73971687     0.90650
O2031       O  0.29664282  0.16979523  0.72913560    -0.82890
O2032       O  0.20061857  0.15572305  0.75764180    -0.76450
Al2033     Al  0.27966452  0.14475964  0.76904888     1.90120
O2034       O  0.24494001  0.17715699  0.71012499    -0.75510
O2035       O  0.18723010  0.10333803  0.72140129    -0.75360
O2036       O  0.24170514  0.11638153  0.67749984    -0.81030
O2037       O  0.20827058  0.07322801  0.76312032    -0.79230
O2038       O  0.25174945  0.11980296  0.74385137    -1.15360
O2039       O  0.27462750  0.07413799  0.78801616    -0.74560
C2040       C  0.26263385  0.08943236  0.81286881     0.96160
C2041       C  0.27584136  0.18409856  0.70899724     0.92560
Al2042     Al  0.22070794  0.13761362  0.71831393     1.55560
O2043       O  0.31984005  0.11186990  0.76236727    -0.79180
C2044       C  0.18376916  0.08011748  0.74279606     0.96720
C2045       C  0.21374350  0.18141797  0.77107755     0.91600
O2046       O  0.24553965  0.18159430  0.77738861    -0.84500
O2047       O  0.12552077  0.91781156  0.74624749    -0.83960
C2048       C  0.16159264  0.05263326  0.73238122     0.95400
O2049       O  0.17832500  0.02756142  0.72347306    -0.73070
O2050       O  0.16750222  0.00524197  0.78226814    -0.76670
Al2051     Al  0.17034638  0.98508752  0.73941044     1.48980
C2052       C  0.15784861  0.98955991  0.80802445     0.90650
O2053       O  0.07697165  0.99800099  0.78388628    -0.82890
O2054       O  0.09216657  0.97171280  0.68689124    -0.76450
Al2055     Al  0.10217431  0.95932624  0.76498896     1.90120
O2056       O  0.06837250  0.01838411  0.73312569    -0.75510
O2057       O  0.14256411  0.00997407  0.67332141    -0.75360
O2058       O  0.12925088  0.05257047  0.72885486    -0.81030
O2059       O  0.17319543  0.96794295  0.69300988    -0.79230
O2060       O  0.12671606  0.98574789  0.73758839    -1.15360
O2061       O  0.17283389  0.94172967  0.75886600    -0.74560
C2062       C  0.15770483  0.91690952  0.74650399     0.96160
C2063       C  0.06180646  0.01856917  0.76432683     0.92560
Al2064     Al  0.10846584  0.01157209  0.70751990     1.55560
O2065       O  0.13530335  0.96590106  0.80482031    -0.79180
C2066       C  0.16599449  0.98885291  0.66906941     0.96720
C2067       C  0.06599254  0.95843028  0.69881887     0.91600
O2068       O  0.06498006  0.95154075  0.73053462    -0.84500
O2069       O  0.38464159  0.00128867  0.66732083    -0.83960
C2070       C  0.34580763  0.98464081  0.80085029     0.95400
O2071       O  0.32954518  0.97592044  0.77541121    -0.73070
O2072       O  0.33990697  0.03566596  0.75416598    -0.76670
Al2073     Al  0.33829811  0.99269835  0.73338582     1.48980
C2074       C  0.34978956  0.06168116  0.73890411     0.90650
O2075       O  0.43050841  0.03641080  0.75089472    -0.82890
O2076       O  0.41828262  0.94001352  0.72125749    -0.76450
Al2077     Al  0.40691873  0.01892789  0.71032034     1.90120
O2078       O  0.43913744  0.98479667  0.76948738    -0.75510
O2079       O  0.36614345  0.92595289  0.75741974    -0.75360
O2080       O  0.37802062  0.98046020  0.80152864    -0.81030
O2081       O  0.33634002  0.94661109  0.71528311    -0.79230
O2082       O  0.38196806  0.99071100  0.73512619    -1.15360
O2083       O  0.33665457  0.01301361  0.69034386    -0.74560
C2084       C  0.35239228  0.00160210  0.66546914     0.96160
C2085       C  0.44446880  0.01600501  0.77163390     0.92560
Al2086     Al  0.39988026  0.95985839  0.76080092     1.55560
O2087       O  0.37349069  0.05871811  0.71643632    -0.79180
C2088       C  0.34323340  0.92221660  0.73577624     0.96720
C2089       C  0.44438780  0.95304496  0.70863477     0.91600
O2090       O  0.44462299  0.98500377  0.70267057    -0.84500
O2091       O  0.07202554  0.36552499  0.73274718    -0.83960
C2092       C  0.93745719  0.33657082  0.76222385     0.95400
O2093       O  0.96215720  0.31758861  0.76836136    -0.73070
O2094       O  0.98373741  0.31823954  0.70790044    -0.76670
Al2095     Al  0.00532165  0.32202518  0.74930218     1.48980
C2096       C  0.99603905  0.32620430  0.67972964     0.90650
O2097       O  0.98934125  0.41109626  0.69887816    -0.82890
O2098       O  0.02593052  0.40270327  0.79406096    -0.76450
Al2099     Al  0.02917546  0.38718072  0.71569004     1.90120
O2100       O  0.97531969  0.42575404  0.75067412    -0.75510
O2101       O  0.98561790  0.35459559  0.81492355    -0.75360
O2102       O  0.94036160  0.36872327  0.76302229    -0.81030
O2103       O  0.02643550  0.32471450  0.79315049    -0.79230
O2104       O  0.00485317  0.36559474  0.74687926    -1.15360
O2105       O  0.04731848  0.31721740  0.72832328    -0.74560
C2106       C  0.07287295  0.33368549  0.73697102     0.96160
C2107       C  0.97166701  0.42876182  0.71912637     0.92560
Al2108     Al  0.98325772  0.38727969  0.77857908     1.55560
O2109       O  0.01850125  0.35039668  0.67855766    -0.79180
C2110       C  0.00625152  0.33050135  0.81751459     0.96720
C2111       C  0.03720605  0.42844253  0.77942895     0.91600
O2112       O  0.04043757  0.42731647  0.74695025    -0.84500
loop_ 
_geom_bond_atom_site_label_1 
_geom_bond_atom_site_label_2 
_geom_bond_distance 
_geom_bond_site_symmetry_2 
_ccdc_geom_bond_type 
O1           C16   1.274       .  A
O1           Al9   2.029       .  S
C2           O12   1.285       .  A
C2            O3   1.240       .  A
C2          C306   1.456       .  S
O3           Al5   1.817       .  S
O4            C6   1.252       .  A
O4           Al5   1.882       .  S
Al5          O13   1.955       .  S
Al5          O15   1.881       .  S
Al5          O14   1.731       .  S
C6           O19   1.297       .  A
C6         C1898   1.490       .  S
O7           C17   1.273       .  A
O7           Al9   1.974       .  S
O8           C21   1.257       .  A
O8          Al18   1.895       .  S
Al9          O22   2.022       .  S
Al9          O19   2.070       .  S
Al9          O14   1.785       .  S
O10          C17   1.256       .  A
O10         Al18   1.874       .  S
O11          C20   1.256       .  A
O11         Al18   1.901       .  S
O12         Al18   2.005       .  S
O13          C20   1.287       .  A
O14         Al18   1.732       .  S
O15          C16   1.247       .  A
C16          C60   1.490       .  S
C17         C329   1.474       .  S
C20         C420   1.457       .  S
C21          O22   1.283       .  A
C21         C457   1.473       .  S
O23          C38   1.277       .  A
O23         Al31   2.038       .  S
C24          O34   1.286       .  A
C24          O25   1.240       .  A
C24        C1912   1.455       .  S
O25         Al27   1.815       .  S
O26          C28   1.253       .  A
O26         Al27   1.887       .  S
Al27         O35   1.958       .  S
Al27         O37   1.881       .  S
Al27         O36   1.730       .  S
C28          O41   1.297       .  A
C28         C292   1.493       .  S
O29          C39   1.276       .  A
O29         Al31   1.994       .  S
O30          C43   1.257       .  A
O30         Al40   1.896       .  S
Al31         O44   2.033       .  S
Al31         O41   2.069       .  S
Al31         O36   1.782       .  S
O32          C39   1.254       .  A
O32         Al40   1.873       .  S
O33          C42   1.254       .  A
O33         Al40   1.895       .  S
O34         Al40   2.005       .  S
O35          C42   1.288       .  A
O36         Al40   1.734       .  S
O37          C38   1.247       .  A
C38         C434   1.494       .  S
C39        C1975   1.476       .  S
C42          C46   1.455       .  S
C43          O44   1.286       .  A
C43         C105   1.476       .  S
O45          C60   1.274       .  A
O45         Al53   2.027       .  S
C46          O56   1.285       .  A
C46          O47   1.241       .  A
O47         Al49   1.819       .  S
O48          C50   1.252       .  A
O48         Al49   1.882       .  S
Al49         O57   1.955       .  S
Al49         O59   1.882       .  S
Al49         O58   1.728       .  S
C50          O63   1.296       .  A
C50         C424   1.487       .  S
O51          C61   1.274       .  A
O51         Al53   1.974       .  S
O52          C65   1.256       .  A
O52         Al62   1.891       .  S
Al53         O66   2.018       .  S
Al53         O63   2.064       .  S
Al53         O58   1.785       .  S
O54          C61   1.254       .  A
O54         Al62   1.869       .  S
O55          C64   1.253       .  A
O55         Al62   1.890       .  S
O56         Al62   2.001       .  S
O57          C64   1.287       .  A
O58         Al62   1.732       .  S
O59          C60   1.248       .  A
C61         C263   1.469       .  S
C64        C1894   1.451       .  S
C65          O66   1.282       .  A
C65         C787   1.467       .  S
O67          C82   1.273       .  A
O67         Al75   2.021       .  S
C68          O78   1.285       .  A
C68          O69   1.240       .  A
C68         C526   1.454       .  S
O69         Al71   1.813       .  S
O70          C72   1.253       .  A
O70         Al71   1.888       .  S
Al71         O79   1.960       .  S
Al71         O81   1.879       .  S
Al71         O80   1.730       .  S
C72          O85   1.296       .  A
C72         C314   1.491       .  S
O73          C83   1.274       .  A
O73         Al75   1.975       .  S
O74          C87   1.258       .  A
O74         Al84   1.896       .  S
Al75         O88   2.016       .  S
Al75         O85   2.065       .  S
Al75         O80   1.786       .  S
O76          C83   1.254       .  A
O76         Al84   1.869       .  S
O77          C86   1.254       .  A
O77         Al84   1.895       .  S
O78         Al84   2.004       .  S
O79          C86   1.288       .  A
O80         Al84   1.733       .  S
O81          C82   1.248       .  A
C82         C390   1.486       .  S
C83        C1407   1.469       .  S
C86         C332   1.458       .  S
C87          O88   1.282       .  A
C87         C237   1.468       .  S
O89         C104   1.276       .  A
O89         Al97   2.036       .  S
C90         O100   1.283       .  A
C90          O91   1.242       .  A
C90         C262   1.450       .  S
O91         Al93   1.818       .  S
O92          C94   1.252       .  A
O92         Al93   1.880       .  S
Al93        O101   1.955       .  S
Al93        O103   1.883       .  S
Al93        O102   1.728       .  S
C94         O107   1.297       .  A
C94        C1282   1.489       .  S
O95         C105   1.274       .  A
O95         Al97   1.977       .  S
O96         C109   1.252       .  A
O96        Al106   1.885       .  S
Al97        O110   2.025       .  S
Al97        O107   2.068       .  S
Al97        O102   1.783       .  S
O98         C105   1.256       .  A
O98        Al106   1.876       .  S
O99         C108   1.254       .  A
O99        Al106   1.890       .  S
O100       Al106   1.993       .  S
O101        C108   1.287       .  A
O102       Al106   1.733       .  S
O103        C104   1.247       .  A
C104        C214   1.493       .  S
C108        C728   1.449       .  S
C109        O110   1.283       .  A
C109       C1979   1.468       .  S
O111        C126   1.276       .  A
O111       Al119   2.035       .  S
C112        O122   1.283       .  A
C112        O113   1.242       .  A
C112       C1340   1.456       .  S
O113       Al115   1.824       .  S
O114        C116   1.252       .  A
O114       Al115   1.879       .  S
Al115       O123   1.955       .  S
Al115       O125   1.883       .  S
Al115       O124   1.727       .  S
C116        O129   1.295       .  A
C116        C138   1.483       .  S
O117        C127   1.273       .  A
O117       Al119   1.972       .  S
O118        C131   1.255       .  A
O118       Al128   1.889       .  S
Al119       O132   2.018       .  S
Al119       O129   2.058       .  S
Al119       O124   1.785       .  S
O120        C127   1.256       .  A
O120       Al128   1.876       .  S
O121        C130   1.255       .  A
O121       Al128   1.898       .  S
O122       Al128   1.998       .  S
O123        C130   1.287       .  A
O124       Al128   1.732       .  S
O125        C126   1.248       .  A
C126       C1226   1.494       .  S
C127        C549   1.473       .  S
C130        C222   1.453       .  S
C131        O132   1.282       .  A
C131        C347   1.467       .  S
O133        C148   1.272       .  A
O133       Al141   2.018       .  S
C134        O144   1.285   1_565  A
C134        O135   1.240   1_565  A
C134       C1230   1.456       .  S
O135       Al137   1.817   1_545  S
O136        C138   1.252       .  A
O136       Al137   1.882       .  S
Al137       O145   1.956   1_565  S
Al137       O147   1.880       .  S
Al137       O146   1.729       .  S
C138        O151   1.295       .  A
O139        C149   1.272       .  A
O139       Al141   1.966       .  S
O140        C153   1.258       .  A
O140       Al150   1.895       .  S
Al141       O154   2.013       .  S
Al141       O151   2.059       .  S
Al141       O146   1.788       .  S
O142        C149   1.255       .  A
O142       Al150   1.868   1_565  S
O143        C152   1.254       .  A
O143       Al150   1.896       .  S
O144       Al150   2.005       .  S
O145        C152   1.287       .  A
O146       Al150   1.731   1_565  S
O147        C148   1.248       .  A
C148       C1336   1.485   1_565  S
C149       C1099   1.465       .  S
C152        C156   1.455       .  S
C153        O154   1.282   1_545  A
C153        C215   1.467       .  S
O155        C170   1.274       .  A
O155       Al163   2.029       .  S
C156        O166   1.284       .  A
C156        O157   1.241       .  A
O157       Al159   1.819       .  S
O158        C160   1.253       .  A
O158       Al159   1.883       .  S
Al159       O167   1.957       .  S
Al159       O169   1.880       .  S
Al159       O168   1.729       .  S
C160        O173   1.295       .  A
C160       C1326   1.486       .  S
O161        C171   1.272       .  A
O161       Al163   1.968       .  S
O162        C175   1.256       .  A
O162       Al172   1.893       .  S
Al163       O176   2.016       .  S
Al163       O173   2.059       .  S
Al163       O168   1.786       .  S
O164        C171   1.256       .  A
O164       Al172   1.874       .  S
O165        C174   1.255       .  A
O165       Al172   1.901       .  S
O166       Al172   2.001       .  S
O167        C174   1.288       .  A
O168       Al172   1.733       .  S
O169        C170   1.247       .  A
C170        C236   1.489       .  S
C171        C197   1.470       .  S
C174       C1212   1.457       .  S
C175        O176   1.282       .  A
C175       C1161   1.468       .  S
O177        C192   1.275       .  A
O177       Al185   2.033       .  S
C178        O188   1.284       .  A
C178        O179   1.241       .  A
C178       C1296   1.455       .  S
O179       Al181   1.819       .  S
O180        C182   1.252       .  A
O180       Al181   1.882       .  S
Al181       O189   1.955       .  S
Al181       O191   1.883       .  S
Al181       O190   1.729       .  S
C182        O195   1.296       .  A
C182        C248   1.487       .  S
O183        C193   1.273       .  A
O183       Al185   1.971       .  S
O184        C197   1.256       .  A
O184       Al194   1.890       .  S
Al185       O198   2.020       .  S
Al185       O195   2.064       .  S
Al185       O190   1.785       .  S
O186        C193   1.255       .  A
O186       Al194   1.870       .  S
O187        C196   1.255       .  A
O187       Al194   1.896       .  S
O188       Al194   2.001       .  S
O189        C196   1.287       .  A
O190       Al194   1.733       .  S
O191        C192   1.248       .  A
C192        C742   1.493       .  S
C193       C1165   1.470       .  S
C196        C200   1.454       .  S
C197        O198   1.282       .  A
O199        C214   1.275       .  A
O199       Al207   2.032       .  S
C200        O210   1.284       .  A
C200        O201   1.241       .  A
O201       Al203   1.819   1_554  S
O202        C204   1.253   1_554  A
O202       Al203   1.886   1_554  S
Al203       O211   1.957       .  S
Al203       O213   1.883       .  S
Al203       O212   1.728       .  S
C204        O217   1.296       .  A
C204        C732   1.490       .  S
O205        C215   1.273       .  A
O205       Al207   1.974   1_554  S
O206        C219   1.255       .  A
O206       Al216   1.890   1_556  S
Al207       O220   2.022       .  S
Al207       O217   2.065       .  S
Al207       O212   1.783       .  S
O208        C215   1.253       .  A
O208       Al216   1.866       .  S
O209        C218   1.253   1_554  A
O209       Al216   1.890       .  S
O210       Al216   1.999       .  S
O211        C218   1.288       .  A
O212       Al216   1.735   1_556  S
O213        C214   1.248       .  A
C218       C1278   1.452       .  S
C219        O220   1.283       .  A
C219       C1095   1.469       .  S
O221        C236   1.274       .  A
O221       Al229   2.027       .  S
C222        O232   1.285       .  A
C222        O223   1.241       .  A
O223       Al225   1.816       .  S
O224        C226   1.254       .  A
O224       Al225   1.888       .  S
Al225       O233   1.961   1_565  S
Al225       O235   1.882   1_565  S
Al225       O234   1.728       .  S
C226        O239   1.298   1_565  A
C226       C1216   1.495       .  S
O227        C237   1.274       .  A
O227       Al229   1.975   1_565  S
O228        C241   1.255       .  A
O228       Al238   1.891   1_545  S
Al229       O242   2.029       .  S
Al229       O239   2.073       .  S
Al229       O234   1.784   1_545  S
O230        C237   1.253       .  A
O230       Al238   1.868       .  S
O231        C240   1.253       .  A
O231       Al238   1.889       .  S
O232       Al238   2.000       .  S
O233        C240   1.289   1_545  A
O234       Al238   1.733       .  S
O235        C236   1.248       .  A
C240       C1322   1.455       .  S
C241        O242   1.284       .  A
C241       C1403   1.472       .  S
O243        C258   1.274   1_556  A
O243       Al251   2.028   1_556  S
C244        O254   1.285       .  A
C244        O245   1.241       .  A
C244        C746   1.457       .  S
O245       Al247   1.819       .  S
O246        C248   1.252       .  A
O246       Al247   1.881   1_554  S
Al247       O255   1.953       .  S
Al247       O257   1.881   1_556  S
Al247       O256   1.730       .  S
C248        O261   1.297       .  A
O249        C259   1.273       .  A
O249       Al251   1.973       .  S
O250        C263   1.257       .  A
O250       Al260   1.894       .  S
Al251       O264   2.018   1_554  S
Al251       O261   2.066       .  S
Al251       O256   1.785   1_554  S
O252        C259   1.255   1_556  A
O252       Al260   1.869       .  S
O253        C262   1.254       .  A
O253       Al260   1.892       .  S
O254       Al260   2.004       .  S
O255        C262   1.286       .  A
O256       Al260   1.732       .  S
O257        C258   1.248       .  A
C258       C1292   1.490   1_554  S
C259        C791   1.470       .  S
C263        O264   1.282       .  A
O265        C280   1.285       .  A
O265       Al273   2.002       .  S
C266        O276   1.273       .  A
C266        O267   1.248       .  A
C266        C346   1.486       .  S
O267       Al269   1.881       .  S
O268        C270   1.288       .  A
O268       Al269   1.959       .  S
Al269       O277   1.886       .  S
Al269       O279   1.815       .  S
Al269       O278   1.730       .  S
C270        O283   1.254       .  A
C270        C376   1.456       .  S
O271        C281   1.257       .  A
O271       Al273   1.893       .  S
O272        C285   1.274       .  A
O272       Al282   1.976       .  S
Al273       O286   1.870       .  S
Al273       O283   1.893       .  S
Al273       O278   1.732       .  S
O274        C281   1.283       .  A
O274       Al282   2.022       .  S
O275        C284   1.297       .  A
O275       Al282   2.070       .  S
O276       Al282   2.023       .  S
O277        C284   1.253       .  A
O278       Al282   1.785       .  S
O279        C280   1.241       .  A
C280        C328   1.454       .  S
C281       C1029   1.470       .  S
C284        C512   1.492       .  S
C285        O286   1.254       .  A
C285        C307   1.471       .  S
O287        C302   1.274       .  A
O287       Al295   2.025       .  S
C288        O298   1.285       .  A
C288        O289   1.240       .  A
C288        C438   1.453       .  S
O289       Al291   1.814       .  S
O290        C292   1.254       .  A
O290       Al291   1.888       .  S
Al291       O299   1.961       .  S
Al291       O301   1.879       .  S
Al291       O300   1.730       .  S
C292        O305   1.297       .  A
O293        C303   1.274       .  A
O293       Al295   1.975       .  S
O294        C307   1.256       .  A
O294       Al304   1.894       .  S
Al295       O308   2.024       .  S
Al295       O305   2.069       .  S
Al295       O300   1.785       .  S
O296        C303   1.254       .  A
O296       Al304   1.871       .  S
O297        C306   1.254       .  A
O297       Al304   1.893       .  S
O298       Al304   2.001       .  S
O299        C306   1.288       .  A
O300       Al304   1.733       .  S
O301        C302   1.247       .  A
C302       C1908   1.486       .  S
C303       C1033   1.471       .  S
C307        O308   1.283       .  A
O309        C324   1.277       .  A
O309       Al317   2.040       .  S
C310        O320   1.284       .  A
C310        O311   1.242       .  A
C310        C394   1.456       .  S
O311       Al313   1.821       .  S
O312        C314   1.253       .  A
O312       Al313   1.882       .  S
Al313       O321   1.957       .  S
Al313       O323   1.883       .  S
Al313       O322   1.729       .  S
C314        O327   1.297       .  A
O315        C325   1.274       .  A
O315       Al317   1.980       .  S
O316        C329   1.255       .  A
O316       Al326   1.891       .  S
Al317       O330   2.029       .  S
Al317       O327   2.069       .  S
Al317       O322   1.783       .  S
O318        C325   1.255       .  A
O318       Al326   1.875       .  S
O319        C328   1.255       .  A
O319       Al326   1.895       .  S
O320       Al326   2.000       .  S
O321        C328   1.288       .  A
O322       Al326   1.734       .  S
O323        C324   1.247       .  A
C324        C522   1.496       .  S
C325        C461   1.476       .  S
C329        O330   1.284       .  A
O331        C346   1.273       .  A
O331       Al339   2.024       .  S
C332        O342   1.285       .  A
C332        O333   1.240       .  A
O333       Al335   1.820       .  S
O334        C336   1.252       .  A
O334       Al335   1.879       .  S
Al335       O343   1.954       .  S
Al335       O345   1.879       .  S
Al335       O344   1.729       .  S
C336        O349   1.295       .  A
C336        C380   1.482       .  S
O337        C347   1.270       .  A
O337       Al339   1.962       .  S
O338        C351   1.257       .  A
O338       Al348   1.894       .  S
Al339       O352   2.016       .  S
Al339       O349   2.059       .  S
Al339       O344   1.788       .  S
O340        C347   1.256       .  A
O340       Al348   1.873       .  S
O341        C350   1.256       .  A
O341       Al348   1.902       .  S
O342       Al348   2.006       .  S
O343        C350   1.287       .  A
O344       Al348   1.731       .  S
O345        C346   1.248       .  A
C350        C508   1.456       .  S
C351        O352   1.282       .  A
C351        C545   1.470       .  S
O353        C368   1.273       .  A
O353       Al361   2.022       .  S
C354        O364   1.285       .  A
C354        O355   1.240       .  A
C354        C460   1.456       .  S
O355       Al357   1.817       .  S
O356        C358   1.252       .  A
O356       Al357   1.885       .  S
Al357       O365   1.957       .  S
Al357       O367   1.881       .  S
Al357       O366   1.729       .  S
C358        O371   1.296       .  A
C358       C1920   1.488       .  S
O359        C369   1.272       .  A
O359       Al361   1.969       .  S
O360        C373   1.258       .  A
O360       Al370   1.895       .  S
Al361       O374   2.017       .  S
Al361       O371   2.063       .  S
Al361       O366   1.786       .  S
O362        C369   1.254       .  A
O362       Al370   1.867       .  S
O363        C372   1.254       .  A
O363       Al370   1.895       .  S
O364       Al370   2.004       .  S
O365        C372   1.287       .  A
O366       Al370   1.732       .  S
O367        C368   1.249       .  A
C368        C478   1.487       .  S
C369        C395   1.465       .  S
C372        C398   1.455       .  S
C373        O374   1.282       .  A
C373       C1051   1.469       .  S
O375        C390   1.272       .  A
O375       Al383   2.022       .  S
C376        O386   1.285       .  A
C376        O377   1.240       .  A
O377       Al379   1.818       .  S
O378        C380   1.252       .  A
O378       Al379   1.879       .  S
Al379       O387   1.955       .  S
Al379       O389   1.879       .  S
Al379       O388   1.729       .  S
C380        O393   1.295       .  A
O381        C391   1.271       .  A
O381       Al383   1.965       .  S
O382        C395   1.256       .  A
O382       Al392   1.893       .  S
Al383       O396   2.012       .  S
Al383       O393   2.058       .  S
Al383       O388   1.788       .  S
O384        C391   1.256       .  A
O384       Al392   1.874       .  S
O385        C394   1.255       .  A
O385       Al392   1.900       .  S
O386       Al392   2.004       .  S
O387        C394   1.287       .  A
O388       Al392   1.730       .  S
O389        C390   1.248       .  A
C391       C1055   1.470       .  S
C395        O396   1.281       .  A
O397        C412   1.275       .  A
O397       Al405   2.030       .  S
C398        O408   1.284       .  A
C398        O399   1.240       .  A
O399       Al401   1.818       .  S
O400        C402   1.253       .  A
O400       Al401   1.883       .  S
Al401       O409   1.956       .  S
Al401       O411   1.880       .  S
Al401       O410   1.730       .  S
C402        O415   1.296       .  A
C402        C468   1.486       .  S
O403        C413   1.272       .  A
O403       Al405   1.969       .  S
O404        C417   1.257       .  A
O404       Al414   1.894       .  S
Al405       O418   2.018       .  S
Al405       O415   2.061       .  S
Al405       O410   1.786       .  S
O406        C413   1.255       .  A
O406       Al414   1.871       .  S
O407        C416   1.255       .  A
O407       Al414   1.898       .  S
O408       Al414   2.002       .  S
O409        C416   1.288       .  A
O410       Al414   1.733       .  S
O411        C412   1.248       .  A
C412        C500   1.490       .  S
C413       C1077   1.469       .  S
C416        C442   1.456       .  S
C417        O418   1.282       .  A
C417        C435   1.470       .  S
O419        C434   1.275       .  A
O419       Al427   2.033       .  S
C420        O430   1.284       .  A
C420        O421   1.242       .  A
O421       Al423   1.823       .  S
O422        C424   1.253       .  A
O422       Al423   1.882       .  S
Al423       O431   1.956       .  S
Al423       O433   1.884       .  S
Al423       O432   1.728       .  S
C424        O437   1.296       .  A
O425        C435   1.273       .  A
O425       Al427   1.973       .  S
O426        C439   1.256       .  A
O426       Al436   1.892       .  S
Al427       O440   2.022       .  S
Al427       O437   2.063       .  S
Al427       O432   1.785       .  S
O428        C435   1.254       .  A
O428       Al436   1.871       .  S
O429        C438   1.254       .  A
O429       Al436   1.894       .  S
O430       Al436   2.000       .  S
O431        C438   1.288       .  A
O432       Al436   1.733       .  S
O433        C434   1.249       .  A
C439        O440   1.283       .  A
C439       C1073   1.471       .  S
O441        C456   1.276       .  A
O441       Al449   2.037       .  S
C442        O452   1.284       .  A
C442        O443   1.241       .  A
O443       Al445   1.818       .  S
O444        C446   1.253       .  A
O444       Al445   1.888       .  S
Al445       O453   1.958       .  S
Al445       O455   1.883       .  S
Al445       O454   1.731       .  S
C446        O459   1.298       .  A
C446        C490   1.496       .  S
O447        C457   1.275       .  A
O447       Al449   1.981       .  S
O448        C461   1.257       .  A
O448       Al458   1.895       .  S
Al449       O462   2.029       .  S
Al449       O459   2.073       .  S
Al449       O454   1.782       .  S
O450        C457   1.254       .  A
O450       Al458   1.870       .  S
O451        C460   1.254       .  A
O451       Al458   1.895       .  S
O452       Al458   2.001       .  S
O453        C460   1.288       .  A
O454       Al458   1.736       .  S
O455        C456   1.248       .  A
C456       C1930   1.495       .  S
C461        O462   1.284       .  A
O463        C478   1.273       .  A
O463       Al471   2.026       .  S
C464        O474   1.285       .  A
C464        O465   1.240       .  A
C464        C504   1.454       .  S
O465       Al467   1.815       .  S
O466        C468   1.252       .  A
O466       Al467   1.881       .  S
Al467       O475   1.955       .  S
Al467       O477   1.879       .  S
Al467       O476   1.731       .  S
C468        O481   1.296       .  A
O469        C479   1.274       .  A
O469       Al471   1.974       .  S
O470        C483   1.257       .  A
O470       Al480   1.893       .  S
Al471       O484   2.014       .  S
Al471       O481   2.065       .  S
Al471       O476   1.786       .  S
O472        C479   1.256       .  A
O472       Al480   1.874       .  S
O473        C482   1.255       .  A
O473       Al480   1.898       .  S
O474       Al480   2.003       .  S
O475        C482   1.287       .  A
O476       Al480   1.731       .  S
O477        C478   1.247       .  A
C479        C571   1.474       .  S
C482       C1916   1.455       .  S
C483        O484   1.281       .  A
C483       C1953   1.467       .  S
O485        C500   1.274       .  A
O485       Al493   2.029       .  S
C486        O496   1.285       .  A
C486        O487   1.241       .  A
C486       C1934   1.453       .  S
O487       Al489   1.816       .  S
O488        C490   1.253       .  A
O488       Al489   1.887       .  S
Al489       O497   1.959       .  S
Al489       O499   1.882       .  S
Al489       O498   1.730       .  S
C490        O503   1.298       .  A
O491        C501   1.275       .  A
O491       Al493   1.978       .  S
O492        C505   1.256       .  A
O492       Al502   1.892       .  S
Al493       O506   2.026       .  S
Al493       O503   2.074       .  S
Al493       O498   1.784       .  S
O494        C501   1.254       .  A
O494       Al502   1.869       .  S
O495        C504   1.253       .  A
O495       Al502   1.890       .  S
O496       Al502   1.999       .  S
O497        C504   1.288       .  A
O498       Al502   1.734       .  S
O499        C500   1.248       .  A
C501       C1121   1.472       .  S
C505        O506   1.284       .  A
C505        C699   1.472       .  S
O507        C522   1.277       .  A
O507       Al515   2.038       .  S
C508        O518   1.284       .  A
C508        O509   1.242       .  A
O509       Al511   1.822       .  S
O510        C512   1.254       .  A
O510       Al511   1.886       .  S
Al511       O519   1.958       .  S
Al511       O521   1.884       .  S
Al511       O520   1.729       .  S
C512        O525   1.296       .  A
O513        C523   1.274       .  A
O513       Al515   1.978       .  S
O514        C527   1.256       .  A
O514       Al524   1.892       .  S
Al515       O528   2.027       .  S
Al515       O525   2.067       .  S
Al515       O520   1.782       .  S
O516        C523   1.253       .  A
O516       Al524   1.871       .  S
O517        C526   1.254       .  A
O517       Al524   1.894       .  S
O518       Al524   1.999       .  S
O519        C526   1.288       .  A
O520       Al524   1.736       .  S
O521        C522   1.248       .  A
C523        C681   1.471       .  S
C527        O528   1.284       .  A
C527       C1381   1.473       .  S
O529        C544   1.276       .  A
O529       Al537   2.037       .  S
C530        O540   1.283       .  A
C530        O531   1.242       .  A
C530        C680   1.457       .  S
O531       Al533   1.823       .  S
O532        C534   1.253       .  A
O532       Al533   1.884       .  S
Al533       O541   1.956       .  S
Al533       O543   1.884       .  S
Al533       O542   1.729       .  S
C534        O547   1.296       .  A
C534        C952   1.489       .  S
O535        C545   1.273       .  A
O535       Al537   1.974       .  S
O536        C549   1.256       .  A
O536       Al546   1.893       .  S
Al537       O550   2.024       .  S
Al537       O547   2.064       .  S
Al537       O542   1.783       .  S
O538        C545   1.254       .  A
O538       Al546   1.869       .  S
O539        C548   1.255       .  A
O539       Al546   1.897       .  S
O540       Al546   2.000       .  S
O541        C548   1.287       .  A
O542       Al546   1.736       .  S
O543        C544   1.248       .  A
C544        C632   1.495       .  S
C548       C1300   1.454       .  S
C549        O550   1.283       .  A
O551        C566   1.275       .  A
O551       Al559   2.031       .  S
C552        O562   1.285       .  A
C552        O553   1.242       .  A
C552       C1010   1.455       .  S
O553       Al555   1.819       .  S
O554        C556   1.254       .  A
O554       Al555   1.887       .  S
Al555       O563   1.959       .  S
Al555       O565   1.883       .  S
Al555       O564   1.729       .  S
C556        O569   1.298       .  A
C556        C600   1.496       .  S
O557        C567   1.274       .  A
O557       Al559   1.976       .  S
O558        C571   1.255       .  A
O558       Al568   1.892       .  S
Al559       O572   2.031       .  S
Al559       O569   2.075       .  S
Al559       O564   1.783       .  S
O560        C567   1.253       .  A
O560       Al568   1.868       .  S
O561        C570   1.253       .  A
O561       Al568   1.890       .  S
O562       Al568   2.000       .  S
O563        C570   1.288       .  A
O564       Al568   1.735       .  S
O565        C566   1.248       .  A
C566        C896   1.491       .  S
C567       C1957   1.470       .  S
C570        C684   1.453       .  S
C571        O572   1.285       .  A
O573        C588   1.272       .  A
O573       Al581   2.018       .  S
C574        O584   1.285       .  A
C574        O575   1.240       .  A
C574        C614   1.456       .  S
O575       Al577   1.816       .  S
O576        C578   1.252       .  A
O576       Al577   1.882       .  S
Al577       O585   1.956       .  S
Al577       O587   1.879       .  S
Al577       O586   1.729       .  S
C578        O591   1.295       .  A
C578        C996   1.482       .  S
O579        C589   1.271       .  A
O579       Al581   1.964       .  S
O580        C593   1.258       .  A
O580       Al590   1.895       .  S
Al581       O594   2.009       .  S
Al581       O591   2.056       .  S
Al581       O586   1.789       .  S
O582        C589   1.255       .  A
O582       Al590   1.870       .  S
O583        C592   1.255       .  A
O583       Al590   1.900       .  S
O584       Al590   2.006       .  S
O585        C592   1.287       .  A
O586       Al590   1.730       .  S
O587        C588   1.248       .  A
C588        C698   1.484       .  S
C589        C659   1.466       .  S
C592        C882   1.457       .  S
C593        O594   1.281       .  A
C593        C831   1.465       .  S
O595        C610   1.275       .  A
O595       Al603   2.030       .  S
C596        O606   1.285       .  A
C596        O597   1.241   1_556  A
C596        C900   1.456       .  S
O597       Al599   1.817   1_554  S
O598        C600   1.253       .  A
O598       Al599   1.889       .  S
Al599       O607   1.959   1_556  S
Al599       O609   1.882       .  S
Al599       O608   1.730       .  S
C600        O613   1.298       .  A
O601        C611   1.274       .  A
O601       Al603   1.977       .  S
O602        C615   1.257       .  A
O602       Al612   1.896       .  S
Al603       O616   2.031       .  S
Al603       O613   2.074       .  S
Al603       O608   1.783       .  S
O604        C611   1.253       .  A
O604       Al612   1.869   1_556  S
O605        C614   1.254       .  A
O605       Al612   1.893       .  S
O606       Al612   2.002   1_556  S
O607        C614   1.288       .  A
O608       Al612   1.735   1_556  S
O609        C610   1.248       .  A
C610       C1006   1.490       .  S
C611        C769   1.470       .  S
C615        O616   1.285   1_554  A
C615        C633   1.476       .  S
O617        C632   1.277       .  A
O617       Al625   2.039       .  S
C618        O628   1.284       .  A
C618        O619   1.241       .  A
C618        C658   1.455       .  S
O619       Al621   1.818   1_455  S
O620        C622   1.253   1_455  A
O620       Al621   1.883   1_455  S
Al621       O629   1.956       .  S
Al621       O631   1.883       .  S
Al621       O630   1.731       .  S
C622        O635   1.298       .  A
C622       C1304   1.493   1_655  S
O623        C633   1.275       .  A
O623       Al625   1.982   1_455  S
O624        C637   1.256       .  A
O624       Al634   1.891   1_655  S
Al625       O638   2.029       .  S
Al625       O635   2.073       .  S
Al625       O630   1.782       .  S
O626        C633   1.255       .  A
O626       Al634   1.872       .  S
O627        C636   1.254   1_455  A
O627       Al634   1.894       .  S
O628       Al634   2.000       .  S
O629        C636   1.288       .  A
O630       Al634   1.735   1_655  S
O631        C632   1.247       .  A
C636        C948   1.454   1_655  S
C637        O638   1.284       .  A
C637        C765   1.475       .  S
O639        C654   1.274       .  A
O639       Al647   2.028       .  S
C640        O650   1.284       .  A
C640        O641   1.241       .  A
C640        C966   1.454       .  S
O641       Al643   1.818       .  S
O642        C644   1.253       .  A
O642       Al643   1.881       .  S
Al643       O651   1.956       .  S
Al643       O653   1.880       .  S
Al643       O652   1.728       .  S
C644        O657   1.296       .  A
C644        C666   1.486       .  S
O645        C655   1.272       .  A
O645       Al647   1.969       .  S
O646        C659   1.255       .  A
O646       Al656   1.890       .  S
Al647       O660   2.016       .  S
Al647       O657   2.062       .  S
Al647       O652   1.786       .  S
O648        C655   1.256       .  A
O648       Al656   1.874       .  S
O649        C658   1.255       .  A
O649       Al656   1.897       .  S
O650       Al656   1.999       .  S
O651        C658   1.287       .  A
O652       Al656   1.731       .  S
O653        C654   1.248       .  A
C654       C1314   1.489       .  S
C655        C835   1.471       .  S
C659        O660   1.282       .  A
O661        C676   1.274       .  A
O661       Al669   2.027       .  S
C662        O672   1.285       .  A
C662        O663   1.239       .  A
C662       C1318   1.456   1_655  S
O663       Al665   1.816   1_655  S
O664        C666   1.252       .  A
O664       Al665   1.882       .  S
Al665       O673   1.955   1_455  S
Al665       O675   1.880       .  S
Al665       O674   1.731       .  S
C666        O679   1.296       .  A
O667        C677   1.272       .  A
O667       Al669   1.970       .  S
O668        C681   1.258       .  A
O668       Al678   1.895       .  S
Al669       O682   2.017   1_455  S
Al669       O679   2.063       .  S
Al669       O674   1.786       .  S
O670        C677   1.255   1_655  A
O670       Al678   1.871       .  S
O671        C680   1.256       .  A
O671       Al678   1.900       .  S
O672       Al678   2.006       .  S
O673        C680   1.287       .  A
O674       Al678   1.732   1_455  S
O675        C676   1.247       .  A
C676        C962   1.489   1_455  S
C677       C1385   1.470       .  S
C681        O682   1.282       .  A
O683        C698   1.272       .  A
O683       Al691   2.020       .  S
C684        O694   1.286       .  A
C684        O685   1.240       .  A
O685       Al687   1.814       .  S
O686        C688   1.252       .  A
O686       Al687   1.883       .  S
Al687       O695   1.957   1_556  S
Al687       O697   1.878   1_556  S
Al687       O696   1.730       .  S
C688        O701   1.296   1_556  A
C688        C886   1.486       .  S
O689        C699   1.273       .  A
O689       Al691   1.973   1_556  S
O690        C703   1.257       .  A
O690       Al700   1.894   1_554  S
Al691       O704   2.011       .  S
Al691       O701   2.063       .  S
Al691       O696   1.787   1_554  S
O692        C699   1.255       .  A
O692       Al700   1.872       .  S
O693        C702   1.254       .  A
O693       Al700   1.897       .  S
O694       Al700   2.004       .  S
O695        C702   1.287   1_554  A
O696       Al700   1.731       .  S
O697        C698   1.247       .  A
C702        C992   1.456       .  S
C703        O704   1.281       .  A
C703       C1117   1.464       .  S
O705        C720   1.278       .  A
O705       Al713   2.028       .  S
C706        O716   1.273       .  A
C706        O707   1.242       .  A
C706       C2110   1.448   1_655  S
O707       Al709   1.814   1_655  S
O708        C710   1.253       .  A
O708       Al709   1.902       .  S
Al709       O717   1.928   1_455  S
Al709       O719   1.895       .  S
Al709       O718   1.735       .  S
C710        O723   1.297       .  A
C710       C2000   1.497       .  S
O711        C721   1.272       .  A
O711       Al713   1.956       .  S
O712        C725   1.258       .  A
O712       Al722   1.900       .  S
Al713       O726   2.024   1_455  S
Al713       O723   2.072       .  S
Al713       O718   1.785       .  S
O714        C721   1.264   1_655  A
O714       Al722   1.896       .  S
O715        C724   1.265       .  A
O715       Al722   1.932       .  S
O716       Al722   1.975       .  S
O717        C724   1.275       .  A
O718       Al722   1.738   1_455  S
O719        C720   1.254       .  A
C720       C2018   1.493   1_455  S
C721       C1847   1.470       .  S
C724       C1974   1.465       .  S
C725        O726   1.281       .  A
C725        C743   1.483       .  S
O727        C742   1.276       .  A
O727       Al735   2.036       .  S
C728        O738   1.283       .  A
C728        O729   1.240       .  A
O729       Al731   1.814       .  S
O730        C732   1.252       .  A
O730       Al731   1.883       .  S
Al731       O739   1.958   1_556  S
Al731       O741   1.883   1_556  S
Al731       O740   1.730       .  S
C732        O745   1.297   1_556  A
O733        C743   1.275       .  A
O733       Al735   1.981   1_556  S
O734        C747   1.255       .  A
O734       Al744   1.892   1_554  S
Al735       O748   2.027       .  S
Al735       O745   2.069       .  S
Al735       O740   1.783   1_554  S
O736        C743   1.256       .  A
O736       Al744   1.878       .  S
O737        C746   1.254       .  A
O737       Al744   1.896       .  S
O738       Al744   1.994       .  S
O739        C746   1.288   1_554  A
O740       Al744   1.733       .  S
O741        C742   1.247       .  A
C747        O748   1.283       .  A
C747       C1843   1.473       .  S
O749        C764   1.274       .  A
O749       Al757   2.028       .  S
C750        O760   1.285       .  A
C750        O751   1.240       .  A
C750        C944   1.455   1_455  S
O751       Al753   1.815   1_554  S
O752        C754   1.252   1_554  A
O752       Al753   1.884   1_654  S
Al753       O761   1.956       .  S
Al753       O763   1.880   1_455  S
Al753       O762   1.731       .  S
C754        O767   1.296       .  A
C754        C776   1.487       .  S
O755        C765   1.274   1_556  A
O755       Al757   1.976       .  S
O756        C769   1.257       .  A
O756       Al766   1.895   1_556  S
Al757       O770   2.017   1_655  S
Al757       O767   2.064       .  S
Al757       O762   1.786   1_655  S
O758        C765   1.256   1_455  A
O758       Al766   1.875       .  S
O759        C768   1.255   1_554  A
O759       Al766   1.901       .  S
O760       Al766   2.004       .  S
O761        C768   1.287       .  A
O762       Al766   1.732   1_556  S
O763        C764   1.247       .  A
C764        C808   1.489   1_655  S
C768        C904   1.457       .  S
C769        O770   1.282       .  A
O771        C786   1.274       .  A
O771       Al779   2.027       .  S
C772        O782   1.286       .  A
C772        O773   1.241       .  A
C772        C812   1.459       .  S
O773       Al775   1.821       .  S
O774        C776   1.253       .  A
O774       Al775   1.882       .  S
Al775       O783   1.954   1_556  S
Al775       O785   1.883   1_556  S
Al775       O784   1.729       .  S
C776        O789   1.297   1_556  A
O777        C787   1.272       .  A
O777       Al779   1.967   1_556  S
O778        C791   1.256       .  A
O778       Al788   1.893   1_554  S
Al779       O792   2.021       .  S
Al779       O789   2.065       .  S
Al779       O784   1.787   1_554  S
O780        C787   1.255       .  A
O780       Al788   1.868       .  S
O781        C790   1.254       .  A
O781       Al788   1.889       .  S
O782       Al788   2.007       .  S
O783        C790   1.287   1_554  A
O784       Al788   1.732       .  S
O785        C786   1.248       .  A
C786        C940   1.489       .  S
C790       C1828   1.451       .  S
C791        O792   1.282       .  A
O793        C808   1.273       .  A
O793       Al801   2.024       .  S
C794        O804   1.286       .  A
C794        O795   1.241       .  A
C794       C1846   1.456   1_655  S
O795       Al797   1.819   1_655  S
O796        C798   1.252       .  A
O796       Al797   1.879       .  S
Al797       O805   1.958   1_455  S
Al797       O807   1.881       .  S
Al797       O806   1.727       .  S
C798        O811   1.296       .  A
C798        C908   1.485       .  S
O799        C809   1.272       .  A
O799       Al801   1.975       .  S
O800        C813   1.254       .  A
O800       Al810   1.888       .  S
Al801       O814   2.021   1_455  S
Al801       O811   2.062       .  S
Al801       O806   1.789       .  S
O802        C809   1.258   1_655  A
O802       Al810   1.891       .  S
O803        C812   1.256       .  A
O803       Al810   1.907       .  S
O804       Al810   2.004       .  S
O805        C812   1.287       .  A
O806       Al810   1.727   1_455  S
O807        C808   1.249       .  A
C809       C2111   1.483       .  S
C813        O814   1.283       .  A
C813       C1909   1.466       .  S
O815        C830   1.275       .  A
O815       Al823   2.029       .  S
C816        O826   1.284       .  A
C816        O817   1.241       .  A
C816        C856   1.455       .  S
O817       Al819   1.819       .  S
O818        C820   1.254       .  A
O818       Al819   1.888       .  S
Al819       O827   1.958       .  S
Al819       O829   1.883       .  S
Al819       O828   1.728       .  S
C820        O833   1.296       .  A
C820       C1854   1.492       .  S
O821        C831   1.273       .  A
O821       Al823   1.971       .  S
O822        C835   1.256       .  A
O822       Al832   1.892       .  S
Al823       O836   2.024       .  S
Al823       O833   2.066       .  S
Al823       O828   1.784       .  S
O824        C831   1.253       .  A
O824       Al832   1.866       .  S
O825        C834   1.253       .  A
O825       Al832   1.891       .  S
O826       Al832   2.000       .  S
O827        C834   1.288       .  A
O828       Al832   1.734       .  S
O829        C830   1.249       .  A
C830       C1886   1.491       .  S
C834        C860   1.454       .  S
C835        O836   1.283       .  A
O837        C852   1.275       .  A
O837       Al845   2.033       .  S
C838        O848   1.284       .  A
C838        O839   1.241       .  A
C838        C878   1.456       .  S
O839       Al841   1.821       .  S
O840        C842   1.252       .  A
O840       Al841   1.881       .  S
Al841       O849   1.954       .  S
Al841       O851   1.882       .  S
Al841       O850   1.729       .  S
C842        O855   1.296       .  A
C842       C1810   1.485       .  S
O843        C853   1.273       .  A
O843       Al845   1.972       .  S
O844        C857   1.256       .  A
O844       Al854   1.892       .  S
Al845       O858   2.018       .  S
Al845       O855   2.061       .  S
Al845       O850   1.785       .  S
O846        C853   1.255       .  A
O846       Al854   1.873       .  S
O847        C856   1.255       .  A
O847       Al854   1.900       .  S
O848       Al854   2.000       .  S
O849        C856   1.287       .  A
O850       Al854   1.733       .  S
O851        C852   1.248       .  A
C852       C1864   1.493       .  S
C853        C923   1.471       .  S
C857        O858   1.282       .  A
C857        C897   1.469       .  S
O859        C874   1.274       .  A
O859       Al867   2.026       .  S
C860        O870   1.285       .  A
C860        O861   1.240       .  A
O861       Al863   1.814       .  S
O862        C864   1.253       .  A
O862       Al863   1.885       .  S
Al863       O871   1.957       .  S
Al863       O873   1.880       .  S
Al863       O872   1.731       .  S
C864        O877   1.296       .  A
C864       C1876   1.490       .  S
O865        C875   1.273       .  A
O865       Al867   1.973       .  S
O866        C879   1.257       .  A
O866       Al876   1.895       .  S
Al867       O880   2.019       .  S
Al867       O877   2.067       .  S
Al867       O872   1.785       .  S
O868        C875   1.255       .  A
O868       Al876   1.869       .  S
O869        C878   1.254       .  A
O869       Al876   1.896       .  S
O870       Al876   2.003       .  S
O871        C878   1.287       .  A
O872       Al876   1.733       .  S
O873        C874   1.247       .  A
C874       C1820   1.487       .  S
C875        C967   1.469       .  S
C879        O880   1.282       .  A
C879        C941   1.470       .  S
O881        C896   1.276       .  A
O881       Al889   2.033       .  S
C882        O892   1.284       .  A
C882        O883   1.241       .  A
O883       Al885   1.821   1_554  S
O884        C886   1.253   1_554  A
O884       Al885   1.883   1_554  S
Al885       O893   1.956       .  S
Al885       O895   1.882       .  S
Al885       O894   1.729       .  S
C886        O899   1.296       .  A
O887        C897   1.272   1_556  A
O887       Al889   1.969       .  S
O888        C901   1.256       .  A
O888       Al898   1.893   1_556  S
Al889       O902   2.022       .  S
Al889       O899   2.061       .  S
Al889       O894   1.785       .  S
O890        C897   1.255       .  A
O890       Al898   1.873       .  S
O891        C900   1.255   1_554  A
O891       Al898   1.899       .  S
O892       Al898   2.002       .  S
O893        C900   1.288       .  A
O894       Al898   1.734   1_556  S
O895        C896   1.248       .  A
C901        O902   1.283       .  A
C901        C919   1.472       .  S
O903        C918   1.276       .  A
O903       Al911   2.036       .  S
C904        O914   1.284   1_556  A
C904        O905   1.241   1_556  A
O905       Al907   1.823   1_554  S
O906        C908   1.252       .  A
O906       Al907   1.881       .  S
Al907       O915   1.955   1_556  S
Al907       O917   1.885       .  S
Al907       O916   1.728       .  S
C908        O921   1.296       .  A
O909        C919   1.273       .  A
O909       Al911   1.973       .  S
O910        C923   1.256       .  A
O910       Al920   1.892       .  S
Al911       O924   2.021       .  S
Al911       O921   2.060       .  S
Al911       O916   1.785       .  S
O912        C919   1.255       .  A
O912       Al920   1.873   1_556  S
O913        C922   1.255       .  A
O913       Al920   1.897       .  S
O914       Al920   2.002       .  S
O915        C922   1.287       .  A
O916       Al920   1.733   1_556  S
O917        C918   1.249       .  A
C918       C1842   1.496   1_556  S
C922        C926   1.454       .  S
C923        O924   1.282   1_554  A
O925        C940   1.275       .  A
O925       Al933   2.028       .  S
C926        O936   1.285       .  A
C926        O927   1.241       .  A
O927       Al929   1.817   1_455  S
O928        C930   1.254       .  A
O928       Al929   1.888   1_455  S
Al929       O937   1.959       .  S
Al929       O939   1.881       .  S
Al929       O938   1.729       .  S
C930        O943   1.297   1_455  A
C930       C1832   1.493       .  S
O931        C941   1.274       .  A
O931       Al933   1.976   1_455  S
O932        C945   1.256       .  A
O932       Al942   1.894   1_655  S
Al933       O946   2.025       .  S
Al933       O943   2.069       .  S
Al933       O938   1.784       .  S
O934        C941   1.254       .  A
O934       Al942   1.870       .  S
O935        C944   1.254   1_455  A
O935       Al942   1.893       .  S
O936       Al942   2.000       .  S
O937        C944   1.288       .  A
O938       Al942   1.734   1_655  S
O939        C940   1.248       .  A
C945        O946   1.283       .  A
C945        C963   1.472       .  S
O947        C962   1.273       .  A
O947       Al955   2.026       .  S
C948        O958   1.285       .  A
C948        O949   1.241       .  A
O949       Al951   1.817       .  S
O950        C952   1.252       .  A
O950       Al951   1.883   1_655  S
Al951       O959   1.956       .  S
Al951       O961   1.881   1_455  S
Al951       O960   1.730       .  S
C952        O965   1.297       .  A
O953        C963   1.274       .  A
O953       Al955   1.975       .  S
O954        C967   1.256       .  A
O954       Al964   1.892       .  S
Al955       O968   2.021   1_655  S
Al955       O965   2.068       .  S
Al955       O960   1.785   1_655  S
O956        C963   1.255   1_455  A
O956       Al964   1.871       .  S
O957        C966   1.254       .  A
O957       Al964   1.894       .  S
O958       Al964   2.000       .  S
O959        C966   1.287       .  A
O960       Al964   1.732       .  S
O961        C962   1.248       .  A
C967        O968   1.283       .  A
O969        C984   1.274       .  A
O969       Al977   2.028       .  S
C970        O980   1.285       .  A
C970        O971   1.240       .  A
C970       C1956   1.458       .  S
O971       Al973   1.819       .  S
O972        C974   1.252       .  A
O972       Al973   1.882       .  S
Al973       O981   1.954   1_565  S
Al973       O983   1.882   1_565  S
Al973       O982   1.730       .  S
C974        O987   1.295   1_565  A
C974       C2052   1.483       .  S
O975        C985   1.271       .  A
O975       Al977   1.964   1_565  S
O976        C989   1.258       .  A
O976       Al986   1.895   1_545  S
Al977       O990   2.014       .  S
Al977       O987   2.058       .  S
Al977       O982   1.787   1_545  S
O978        C985   1.256       .  A
O978       Al986   1.871       .  S
O979        C988   1.256       .  A
O979       Al986   1.901       .  S
O980       Al986   2.007       .  S
O981        C988   1.288   1_545  A
O982       Al986   1.732       .  S
O983        C984   1.248       .  A
C984       C2040   1.491       .  S
C985       C1011   1.467       .  S
C988       C2070   1.457       .  S
C989        O990   1.281       .  A
C989       C1711   1.470       .  S
O991       C1006   1.274       .  A
O991       Al999   2.030   1_556  S
C992       O1002   1.284       .  A
C992        O993   1.241       .  A
O993       Al995   1.821       .  S
O994        C996   1.252       .  A
O994       Al995   1.877   1_554  S
Al995      O1003   1.955       .  S
Al995      O1005   1.882   1_556  S
Al995      O1004   1.727       .  S
C996       O1009   1.296       .  A
O997       C1007   1.271       .  A
O997       Al999   1.967       .  S
O998       C1011   1.255       .  A
O998      Al1008   1.889       .  S
Al999      O1012   2.018   1_554  S
Al999      O1009   2.059       .  S
Al999      O1004   1.787   1_554  S
O1000      C1007   1.256   1_556  A
O1000     Al1008   1.876       .  S
O1001      C1010   1.256       .  A
O1001     Al1008   1.899       .  S
O1002     Al1008   2.001       .  S
O1003      C1010   1.287       .  A
O1004     Al1008   1.731       .  S
O1005      C1006   1.248   1_554  A
C1007      C1715   1.471       .  S
C1011      O1012   1.282       .  A
O1013      C1028   1.274       .  A
O1013     Al1021   2.026       .  S
C1014      O1024   1.285       .  A
C1014      O1015   1.240       .  A
C1014      C1054   1.453       .  S
O1015     Al1017   1.814       .  S
O1016      C1018   1.253       .  A
O1016     Al1017   1.886       .  S
Al1017     O1025   1.958       .  S
Al1017     O1027   1.880       .  S
Al1017     O1026   1.731       .  S
C1018      O1031   1.297       .  A
C1018      C1788   1.493       .  S
O1019      C1029   1.274       .  A
O1019     Al1021   1.975       .  S
O1020      C1033   1.257       .  A
O1020     Al1030   1.894       .  S
Al1021     O1034   2.021       .  S
Al1021     O1031   2.071       .  S
Al1021     O1026   1.785       .  S
O1022      C1029   1.254       .  A
O1022     Al1030   1.869       .  S
O1023      C1032   1.254       .  A
O1023     Al1030   1.893       .  S
O1024     Al1030   2.003       .  S
O1025      C1032   1.288       .  A
O1026     Al1030   1.733       .  S
O1027      C1028   1.247       .  A
C1028      C1688   1.488       .  S
C1032      C1058   1.455       .  S
C1033      O1034   1.283       .  A
O1035      C1050   1.275       .  A
O1035     Al1043   2.032       .  S
C1036      O1046   1.284       .  A
C1036      O1037   1.242       .  A
C1036      C1076   1.453       .  S
O1037     Al1039   1.819       .  S
O1038      C1040   1.254       .  A
O1038     Al1039   1.886       .  S
Al1039     O1047   1.959       .  S
Al1039     O1049   1.883       .  S
Al1039     O1048   1.728       .  S
C1040      O1053   1.297       .  A
C1040      C1766   1.493       .  S
O1041      C1051   1.273       .  A
O1041     Al1043   1.974       .  S
O1042      C1055   1.255       .  A
O1042     Al1052   1.890       .  S
Al1043     O1056   2.024       .  S
Al1043     O1053   2.068       .  S
Al1043     O1048   1.784       .  S
O1044      C1051   1.254       .  A
O1044     Al1052   1.869       .  S
O1045      C1054   1.254       .  A
O1045     Al1052   1.892       .  S
O1046     Al1052   1.997       .  S
O1047      C1054   1.288       .  A
O1048     Al1052   1.734       .  S
O1049      C1050   1.248       .  A
C1050      C1798   1.492       .  S
C1055      O1056   1.283       .  A
O1057      C1072   1.275       .  A
O1057     Al1065   2.030       .  S
C1058      O1068   1.284       .  A
C1058      O1059   1.241       .  A
O1059     Al1061   1.820       .  S
O1060      C1062   1.252       .  A
O1060     Al1061   1.879       .  S
Al1061     O1069   1.954       .  S
Al1061     O1071   1.882       .  S
Al1061     O1070   1.729       .  S
C1062      O1075   1.296       .  A
C1062      C1678   1.485       .  S
O1063      C1073   1.272       .  A
O1063     Al1065   1.971       .  S
O1064      C1077   1.256       .  A
O1064     Al1074   1.891       .  S
Al1065     O1078   2.018       .  S
Al1065     O1075   2.063       .  S
Al1065     O1070   1.785       .  S
O1066      C1073   1.255       .  A
O1066     Al1074   1.871       .  S
O1067      C1076   1.255       .  A
O1067     Al1074   1.897       .  S
O1068     Al1074   2.002       .  S
O1069      C1076   1.287       .  A
O1070     Al1074   1.732       .  S
O1071      C1072   1.248       .  A
C1072      C1776   1.491       .  S
C1077      O1078   1.282       .  A
O1079      C1094   1.272       .  A
O1079     Al1087   2.022       .  S
C1080      O1090   1.284       .  A
C1080      O1081   1.240       .  A
C1080      C1274   1.454   1_554  S
O1081     Al1083   1.818   1_544  S
O1082      C1084   1.253   1_545  A
O1082     Al1083   1.881   1_545  S
Al1083     O1091   1.956   1_556  S
Al1083     O1093   1.878       .  S
Al1083     O1092   1.728       .  S
C1084      O1097   1.296       .  A
C1084      C1128   1.484       .  S
O1085      C1095   1.271   1_565  A
O1085     Al1087   1.965       .  S
O1086      C1099   1.256       .  A
O1086     Al1096   1.892   1_565  S
Al1087     O1100   2.014   1_556  S
Al1087     O1097   2.060       .  S
Al1087     O1092   1.787       .  S
O1088      C1095   1.256   1_554  A
O1088     Al1096   1.874       .  S
O1089      C1098   1.255   1_545  A
O1089     Al1096   1.897       .  S
O1090     Al1096   2.001       .  S
O1091      C1098   1.287       .  A
O1092     Al1096   1.730   1_566  S
O1093      C1094   1.247       .  A
C1094      C1116   1.485   1_556  S
C1098      C1234   1.454       .  S
C1099      O1100   1.281       .  A
O1101      C1116   1.273       .  A
O1101     Al1109   2.020       .  S
C1102      O1112   1.286       .  A
C1102      O1103   1.240       .  A
C1102      C1714   1.454       .  S
O1103     Al1105   1.813       .  S
O1104      C1106   1.253       .  A
O1104     Al1105   1.890   1_554  S
Al1105     O1113   1.961       .  S
Al1105     O1115   1.881   1_556  S
Al1105     O1114   1.729       .  S
C1106      O1119   1.297       .  A
C1106      C1238   1.494       .  S
O1107      C1117   1.273       .  A
O1107     Al1109   1.971       .  S
O1108      C1121   1.257       .  A
O1108     Al1118   1.895       .  S
Al1109     O1122   2.025   1_554  S
Al1109     O1119   2.071       .  S
Al1109     O1114   1.786   1_554  S
O1110      C1117   1.253   1_556  A
O1110     Al1118   1.866       .  S
O1111      C1120   1.253       .  A
O1111     Al1118   1.891       .  S
O1112     Al1118   2.004       .  S
O1113      C1120   1.288       .  A
O1114     Al1118   1.733       .  S
O1115      C1116   1.248       .  A
C1120      C1124   1.456       .  S
C1121      O1122   1.284       .  A
O1123      C1138   1.273       .  A
O1123     Al1131   2.025       .  S
C1124      O1134   1.285       .  A
C1124      O1125   1.239       .  A
O1125     Al1127   1.817       .  S
O1126      C1128   1.252       .  A
O1126     Al1127   1.880       .  S
Al1127     O1135   1.954   1_565  S
Al1127     O1137   1.878   1_565  S
Al1127     O1136   1.731       .  S
C1128      O1141   1.296   1_565  A
O1129      C1139   1.271       .  A
O1129     Al1131   1.967   1_565  S
O1130      C1143   1.258       .  A
O1130     Al1140   1.895   1_545  S
Al1131     O1144   2.015       .  S
Al1131     O1141   2.062       .  S
Al1131     O1136   1.787   1_545  S
O1132      C1139   1.257       .  A
O1132     Al1140   1.873       .  S
O1133      C1142   1.256       .  A
O1133     Al1140   1.903       .  S
O1134     Al1140   2.006       .  S
O1135      C1142   1.287   1_545  A
O1136     Al1140   1.732       .  S
O1137      C1138   1.247       .  A
C1138      C1270   1.487       .  S
C1139      C1935   1.471       .  S
C1142      C1696   1.457       .  S
C1143      O1144   1.282       .  A
C1143      C2085   1.471       .  S
O1145      C1160   1.274       .  A
O1145     Al1153   2.028       .  S
C1146      O1156   1.284       .  A
C1146      O1147   1.242       .  A
C1146      C1208   1.458       .  S
O1147     Al1149   1.824       .  S
O1148      C1150   1.252       .  A
O1148     Al1149   1.881       .  S
Al1149     O1157   1.956       .  S
Al1149     O1159   1.883       .  S
Al1149     O1158   1.727       .  S
C1150      O1163   1.296       .  A
C1150      C1656   1.485       .  S
O1151      C1161   1.272       .  A
O1151     Al1153   1.969       .  S
O1152      C1165   1.256       .  A
O1152     Al1162   1.893       .  S
Al1153     O1166   2.022       .  S
Al1153     O1163   2.061       .  S
Al1153     O1158   1.786       .  S
O1154      C1161   1.255       .  A
O1154     Al1162   1.872       .  S
O1155      C1164   1.255       .  A
O1155     Al1162   1.896       .  S
O1156     Al1162   2.002       .  S
O1157      C1164   1.287       .  A
O1158     Al1162   1.732       .  S
O1159      C1160   1.249       .  A
C1160      C1754   1.490       .  S
C1164      C1168   1.454       .  S
C1165      O1166   1.283       .  A
O1167      C1182   1.272       .  A
O1167     Al1175   2.018       .  S
C1168      O1178   1.285       .  A
C1168      O1169   1.240       .  A
O1169     Al1171   1.815       .  S
O1170      C1172   1.254       .  A
O1170     Al1171   1.887       .  S
Al1171     O1179   1.961       .  S
Al1171     O1181   1.879       .  S
Al1171     O1180   1.728       .  S
C1172      O1185   1.296       .  A
C1172      C1744   1.490       .  S
O1173      C1183   1.272       .  A
O1173     Al1175   1.967       .  S
O1174      C1187   1.256       .  A
O1174     Al1184   1.894       .  S
Al1175     O1188   2.021       .  S
Al1175     O1185   2.066       .  S
Al1175     O1180   1.787       .  S
O1176      C1183   1.255       .  A
O1176     Al1184   1.871       .  S
O1177      C1186   1.254       .  A
O1177     Al1184   1.894       .  S
O1178     Al1184   2.002       .  S
O1179      C1186   1.289       .  A
O1180     Al1184   1.731       .  S
O1181      C1182   1.248       .  A
C1182      C1732   1.483       .  S
C1183      C1297   1.466       .  S
C1186      C1190   1.457       .  S
C1187      O1188   1.283       .  A
C1187      C1271   1.469       .  S
O1189      C1204   1.274       .  A
O1189     Al1197   2.027       .  S
C1190      O1200   1.285       .  A
C1190      O1191   1.239       .  A
O1191     Al1193   1.817       .  S
O1192      C1194   1.251       .  A
O1192     Al1193   1.880       .  S
Al1193     O1201   1.956       .  S
Al1193     O1203   1.880       .  S
Al1193     O1202   1.731       .  S
C1194      O1207   1.296       .  A
C1194      C1722   1.485       .  S
O1195      C1205   1.273       .  A
O1195     Al1197   1.973       .  S
O1196      C1209   1.258       .  A
O1196     Al1206   1.896       .  S
Al1197     O1210   2.017       .  S
Al1197     O1207   2.064       .  S
Al1197     O1202   1.787       .  S
O1198      C1205   1.256       .  A
O1198     Al1206   1.876       .  S
O1199      C1208   1.256       .  A
O1199     Al1206   1.903       .  S
O1200     Al1206   2.008       .  S
O1201      C1208   1.287       .  A
O1202     Al1206   1.731       .  S
O1203      C1204   1.247       .  A
C1204      C1666   1.488       .  S
C1205      C1253   1.474       .  S
C1209      O1210   1.282       .  A
C1209      C1227   1.471       .  S
O1211      C1226   1.276       .  A
O1211     Al1219   2.035       .  S
C1212      O1222   1.285       .  A
C1212      O1213   1.241       .  A
O1213     Al1215   1.818   1_545  S
O1214      C1216   1.253   1_545  A
O1214     Al1215   1.888   1_545  S
Al1215     O1223   1.958       .  S
Al1215     O1225   1.884       .  S
Al1215     O1224   1.730       .  S
C1216      O1229   1.298       .  A
O1217      C1227   1.275       .  A
O1217     Al1219   1.980   1_545  S
O1218      C1231   1.257       .  A
O1218     Al1228   1.895   1_565  S
Al1219     O1232   2.031       .  S
Al1219     O1229   2.074       .  S
Al1219     O1224   1.782       .  S
O1220      C1227   1.253       .  A
O1220     Al1228   1.869       .  S
O1221      C1230   1.254   1_545  A
O1221     Al1228   1.893       .  S
O1222     Al1228   2.004       .  S
O1223      C1230   1.288       .  A
O1224     Al1228   1.735   1_565  S
O1225      C1226   1.248       .  A
C1231      O1232   1.285       .  A
C1231      C1249   1.477       .  S
O1233      C1248   1.277       .  A
O1233     Al1241   2.040       .  S
C1234      O1244   1.284   1_565  A
C1234      O1235   1.241   1_565  A
O1235     Al1237   1.819   1_545  S
O1236      C1238   1.253       .  A
O1236     Al1237   1.884       .  S
Al1237     O1245   1.958   1_565  S
Al1237     O1247   1.883       .  S
Al1237     O1246   1.730       .  S
C1238      O1251   1.298       .  A
O1239      C1249   1.275       .  A
O1239     Al1241   1.982       .  S
O1240      C1253   1.255       .  A
O1240     Al1250   1.890       .  S
Al1241     O1254   2.031       .  S
Al1241     O1251   2.074       .  S
Al1241     O1246   1.783       .  S
O1242      C1249   1.255       .  A
O1242     Al1250   1.875   1_565  S
O1243      C1252   1.255       .  A
O1243     Al1250   1.895       .  S
O1244     Al1250   1.999       .  S
O1245      C1252   1.288       .  A
O1246     Al1250   1.734   1_565  S
O1247      C1248   1.247       .  A
C1248      C1710   1.496   1_565  S
C1252      C1256   1.455       .  S
C1253      O1254   1.284   1_545  A
O1255      C1270   1.273       .  A
O1255     Al1263   2.022       .  S
C1256      O1266   1.285       .  A
C1256      O1257   1.240       .  A
O1257     Al1259   1.816   1_554  S
O1258      C1260   1.252   1_554  A
O1258     Al1259   1.884   1_554  S
Al1259     O1267   1.957       .  S
Al1259     O1269   1.882       .  S
Al1259     O1268   1.730       .  S
C1260      O1273   1.297       .  A
C1260      C1700   1.490       .  S
O1261      C1271   1.273       .  A
O1261     Al1263   1.973   1_554  S
O1262      C1275   1.257       .  A
O1262     Al1272   1.893   1_556  S
Al1263     O1276   2.022       .  S
Al1263     O1273   2.070       .  S
Al1263     O1268   1.786       .  S
O1264      C1271   1.254       .  A
O1264     Al1272   1.867       .  S
O1265      C1274   1.254   1_554  A
O1265     Al1272   1.892       .  S
O1266     Al1272   2.004       .  S
O1267      C1274   1.288       .  A
O1268     Al1272   1.732   1_556  S
O1269      C1270   1.248       .  A
C1275      O1276   1.283       .  A
C1275      C1293   1.471       .  S
O1277      C1292   1.274       .  A
O1277     Al1285   2.028       .  S
C1278      O1288   1.285   1_556  A
C1278      O1279   1.240   1_556  A
O1279     Al1281   1.814   1_554  S
O1280      C1282   1.253       .  A
O1280     Al1281   1.886       .  S
Al1281     O1289   1.957   1_556  S
Al1281     O1291   1.881       .  S
Al1281     O1290   1.730       .  S
C1282      O1295   1.296       .  A
O1283      C1293   1.274       .  A
O1283     Al1285   1.976       .  S
O1284      C1297   1.256       .  A
O1284     Al1294   1.892       .  S
Al1285     O1298   2.015       .  S
Al1285     O1295   2.064       .  S
Al1285     O1290   1.785       .  S
O1286      C1293   1.254       .  A
O1286     Al1294   1.869   1_556  S
O1287      C1296   1.254       .  A
O1287     Al1294   1.894       .  S
O1288     Al1294   2.000       .  S
O1289      C1296   1.287       .  A
O1290     Al1294   1.733   1_556  S
O1291      C1292   1.248       .  A
C1297      O1298   1.282   1_554  A
O1299      C1314   1.274       .  A
O1299     Al1307   2.026       .  S
C1300      O1310   1.285       .  A
C1300      O1301   1.241       .  A
O1301     Al1303   1.815   1_655  S
O1302      C1304   1.254   1_655  A
O1302     Al1303   1.890   1_655  S
Al1303     O1311   1.960       .  S
Al1303     O1313   1.881       .  S
Al1303     O1312   1.729       .  S
C1304      O1317   1.296       .  A
O1305      C1315   1.274       .  A
O1305     Al1307   1.976   1_655  S
O1306      C1319   1.257       .  A
O1306     Al1316   1.895   1_455  S
Al1307     O1320   2.022       .  S
Al1307     O1317   2.067       .  S
Al1307     O1312   1.784       .  S
O1308      C1315   1.253       .  A
O1308     Al1316   1.868       .  S
O1309      C1318   1.253   1_655  A
O1309     Al1316   1.891       .  S
O1310     Al1316   2.001       .  S
O1311      C1318   1.288       .  A
O1312     Al1316   1.734   1_455  S
O1313      C1314   1.248       .  A
C1315      C1341   1.468       .  S
C1319      O1320   1.283       .  A
C1319      C1583   1.470       .  S
O1321      C1336   1.272       .  A
O1321     Al1329   2.022       .  S
C1322      O1332   1.285       .  A
C1322      O1323   1.239       .  A
O1323     Al1325   1.814       .  S
O1324      C1326   1.252       .  A
O1324     Al1325   1.881   1_545  S
Al1325     O1333   1.955       .  S
Al1325     O1335   1.878   1_565  S
Al1325     O1334   1.732       .  S
C1326      O1339   1.296       .  A
O1327      C1337   1.273       .  A
O1327     Al1329   1.971       .  S
O1328      C1341   1.258       .  A
O1328     Al1338   1.895       .  S
Al1329     O1342   2.012   1_545  S
Al1329     O1339   2.064       .  S
Al1329     O1334   1.787   1_545  S
O1330      C1337   1.256   1_565  A
O1330     Al1338   1.871       .  S
O1331      C1340   1.255       .  A
O1331     Al1338   1.899       .  S
O1332     Al1338   2.006       .  S
O1333      C1340   1.287       .  A
O1334     Al1338   1.731       .  S
O1335      C1336   1.247       .  A
C1337      C1579   1.472       .  S
C1341      O1342   1.281       .  A
O1343      C1358   1.275       .  A
O1343     Al1351   2.038       .  S
C1344      O1354   1.282       .  A
C1344      O1345   1.240       .  A
C1344      C1516   1.445       .  S
O1345     Al1347   1.811       .  S
O1346      C1348   1.253       .  A
O1346     Al1347   1.884       .  S
Al1347     O1355   1.960       .  S
Al1347     O1357   1.881       .  S
Al1347     O1356   1.733       .  S
C1348      O1361   1.297       .  A
C1348      C1612   1.492       .  S
O1349      C1359   1.276       .  A
O1349     Al1351   1.985       .  S
O1350      C1363   1.255       .  A
O1350     Al1360   1.890       .  S
Al1351     O1364   2.017       .  S
Al1351     O1361   2.069       .  S
Al1351     O1356   1.784       .  S
O1352      C1359   1.257       .  A
O1352     Al1360   1.879       .  S
O1353      C1362   1.255       .  A
O1353     Al1360   1.899       .  S
O1354     Al1360   1.990       .  S
O1355      C1362   1.288       .  A
O1356     Al1360   1.734       .  S
O1357      C1358   1.246       .  A
C1358      C1600   1.494       .  S
C1359      C1997   1.489       .  S
C1362      C1520   1.459       .  S
C1363      O1364   1.281       .  A
C1363      C2041   1.468       .  S
O1365      C1380   1.275       .  A
O1365     Al1373   2.031       .  S
C1366      O1376   1.284       .  A
C1366      O1367   1.242       .  A
C1366      C1406   1.456       .  S
O1367     Al1369   1.822   1_655  S
O1368      C1370   1.252   1_655  A
O1368     Al1369   1.879   1_655  S
Al1369     O1377   1.955       .  S
Al1369     O1379   1.882       .  S
Al1369     O1378   1.728       .  S
C1370      O1383   1.297       .  A
C1370      C1428   1.487       .  S
O1371      C1381   1.273       .  A
O1371     Al1373   1.972   1_655  S
O1372      C1385   1.255       .  A
O1372     Al1382   1.890   1_455  S
Al1373     O1386   2.023       .  S
Al1373     O1383   2.066       .  S
Al1373     O1378   1.785       .  S
O1374      C1381   1.256       .  A
O1374     Al1382   1.875       .  S
O1375      C1384   1.255   1_655  A
O1375     Al1382   1.897       .  S
O1376     Al1382   2.001       .  S
O1377      C1384   1.287       .  A
O1378     Al1382   1.731   1_455  S
O1379      C1380   1.248       .  A
C1380      C1446   1.492       .  S
C1384      C1578   1.453   1_455  S
C1385      O1386   1.283       .  A
O1387      C1402   1.273       .  A
O1387     Al1395   2.021       .  S
C1388      O1398   1.285       .  A
C1388      O1389   1.239       .  A
C1388      C1568   1.454       .  S
O1389     Al1391   1.813       .  S
O1390      C1392   1.252       .  A
O1390     Al1391   1.883   1_545  S
Al1391     O1399   1.958       .  S
Al1391     O1401   1.879   1_565  S
Al1391     O1400   1.731       .  S
C1392      O1405   1.297       .  A
C1392      C1458   1.488       .  S
O1393      C1403   1.273       .  A
O1393     Al1395   1.971       .  S
O1394      C1407   1.257       .  A
O1394     Al1404   1.893       .  S
Al1395     O1408   2.017   1_545  S
Al1395     O1405   2.066       .  S
Al1395     O1400   1.787   1_545  S
O1396      C1403   1.256   1_565  A
O1396     Al1404   1.871       .  S
O1397      C1406   1.254       .  A
O1397     Al1404   1.896       .  S
O1398     Al1404   2.004       .  S
O1399      C1406   1.288       .  A
O1400     Al1404   1.731       .  S
O1401      C1402   1.247       .  A
C1402      C1410   1.483   1_545  S
C1407      O1408   1.282       .  A
O1409      C1424   1.283   1_545  A
O1409     Al1417   1.997       .  S
C1410      O1420   1.271       .  A
C1410      O1411   1.247       .  A
O1411     Al1413   1.879       .  S
O1412      C1414   1.288   1_655  A
O1412     Al1413   1.958   1_545  S
Al1413     O1421   1.883   1_655  S
Al1413     O1423   1.817   1_665  S
Al1413     O1422   1.729   1_655  S
C1414      O1427   1.257       .  A
C1414      C1454   1.459       .  S
O1415      C1425   1.255       .  A
O1415     Al1417   1.886   1_655  S
O1416      C1429   1.270       .  A
O1416     Al1426   1.960   1_455  S
Al1417     O1430   1.871   1_545  S
Al1417     O1427   1.907       .  S
Al1417     O1422   1.734   1_545  S
O1418      C1425   1.282       .  A
O1418     Al1426   2.011   1_545  S
O1419      C1428   1.297   1_655  A
O1419     Al1426   2.064       .  S
O1420     Al1426   2.018       .  S
O1421      C1428   1.253       .  A
O1422     Al1426   1.788   1_455  S
O1423      C1424   1.240   1_545  A
C1424      C1450   1.451       .  S
C1425      C2019   1.464       .  S
C1429      O1430   1.257       .  A
C1429      C2067   1.468       .  S
O1431      C1446   1.275       .  A
O1431     Al1439   2.032       .  S
C1432      O1442   1.286       .  A
C1432      O1433   1.241       .  A
C1432      C1472   1.456       .  S
O1433     Al1435   1.817   1_545  S
O1434      C1436   1.252   1_545  A
O1434     Al1435   1.885   1_545  S
Al1435     O1443   1.957       .  S
Al1435     O1445   1.883       .  S
Al1435     O1444   1.731       .  S
C1436      O1449   1.299       .  A
C1436      C1582   1.495       .  S
O1437      C1447   1.275       .  A
O1437     Al1439   1.979   1_545  S
O1438      C1451   1.256       .  A
O1438     Al1448   1.893   1_565  S
Al1439     O1452   2.032       .  S
Al1439     O1449   2.077       .  S
Al1439     O1444   1.783       .  S
O1440      C1447   1.253       .  A
O1440     Al1448   1.868       .  S
O1441      C1450   1.253   1_545  A
O1441     Al1448   1.887       .  S
O1442     Al1448   2.004       .  S
O1443      C1450   1.287       .  A
O1444     Al1448   1.732   1_565  S
O1445      C1446   1.248       .  A
C1447      C1539   1.471       .  S
C1451      O1452   1.285       .  A
C1451      C1557   1.476       .  S
O1453      C1468   1.276       .  A
O1453     Al1461   2.033       .  S
C1454      O1464   1.287       .  A
C1454      O1455   1.241       .  A
O1455     Al1457   1.819       .  S
O1456      C1458   1.254       .  A
O1456     Al1457   1.886   1_655  S
Al1457     O1465   1.959       .  S
Al1457     O1467   1.881   1_455  S
Al1457     O1466   1.728       .  S
C1458      O1471   1.295       .  A
O1459      C1469   1.275       .  A
O1459     Al1461   1.990       .  S
O1460      C1473   1.257       .  A
O1460     Al1470   1.898       .  S
Al1461     O1474   2.025   1_655  S
Al1461     O1471   2.059       .  S
Al1461     O1466   1.785   1_655  S
O1462      C1469   1.254   1_455  A
O1462     Al1470   1.877       .  S
O1463      C1472   1.254       .  A
O1463     Al1470   1.894       .  S
O1464     Al1470   2.008       .  S
O1465      C1472   1.288       .  A
O1466     Al1470   1.732       .  S
O1467      C1468   1.248       .  A
C1468      C1564   1.492   1_655  S
C1469      C1495   1.473       .  S
C1473      O1474   1.284       .  A
C1473      C1513   1.471       .  S
O1475      C1490   1.280       .  A
O1475     Al1483   2.030       .  S
C1476      O1486   1.291       .  A
C1476      O1477   1.278       .  A
C1476      C1986   1.459       .  S
O1477     Al1479   1.901   1_455  S
O1478      C1480   1.272       .  A
O1478     Al1479   1.936       .  S
Al1479     O1487   1.901       .  S
Al1479     O1489   1.881       .  S
Al1479     O1488   1.718       .  S
C1480      O1493   1.274       .  A
C1480      C2096   1.528       .  S
O1481      C1491   1.253       .  A
O1481     Al1483   1.960   1_455  S
O1482      C1495   1.275       .  A
O1482     Al1492   1.881   1_655  S
Al1483     O1496   2.024       .  S
Al1483     O1493   2.009       .  S
Al1483     O1488   1.794       .  S
O1484      C1491   1.240       .  A
O1484     Al1492   1.819       .  S
O1485      C1494   1.231       .  A
O1485     Al1492   1.881       .  S
O1486     Al1492   1.937       .  S
O1487      C1494   1.242   1_655  A
O1488     Al1492   1.724   1_655  S
O1489      C1490   1.234       .  A
C1490      C1960   1.476       .  S
C1491      C1517   1.474       .  S
C1494      C2004   1.440       .  S
C1495      O1496   1.299       .  A
O1497      C1512   1.276       .  A
O1497     Al1505   2.036       .  S
C1498      O1508   1.284       .  A
C1498      O1499   1.243       .  A
C1498      C1538   1.450       .  S
O1499     Al1501   1.821       .  S
O1500      C1502   1.250       .  A
O1500     Al1501   1.872       .  S
Al1501     O1509   1.953       .  S
Al1501     O1511   1.887       .  S
Al1501     O1510   1.724       .  S
C1502      O1515   1.298       .  A
C1502      C1634   1.483       .  S
O1503      C1513   1.273       .  A
O1503     Al1505   1.972       .  S
O1504      C1517   1.250       .  A
O1504     Al1514   1.876       .  S
Al1505     O1518   2.039       .  S
Al1505     O1515   2.068       .  S
Al1505     O1510   1.785       .  S
O1506      C1513   1.255       .  A
O1506     Al1514   1.871       .  S
O1507      C1516   1.253       .  A
O1507     Al1514   1.883       .  S
O1508     Al1514   1.993       .  S
O1509      C1516   1.287       .  A
O1510     Al1514   1.726       .  S
O1511      C1512   1.249       .  A
C1512      C1622   1.496       .  S
C1517      O1518   1.284       .  A
O1519      C1534   1.274       .  A
O1519     Al1527   2.030       .  S
C1520      O1530   1.285       .  A
C1520      O1521   1.241       .  A
O1521     Al1523   1.821       .  S
O1522      C1524   1.251       .  A
O1522     Al1523   1.880       .  S
Al1523     O1531   1.951       .  S
Al1523     O1533   1.882       .  S
Al1523     O1532   1.729       .  S
C1524      O1537   1.297       .  A
C1524      C1590   1.487       .  S
O1525      C1535   1.274       .  A
O1525     Al1527   1.974       .  S
O1526      C1539   1.257       .  A
O1526     Al1536   1.895       .  S
Al1527     O1540   2.022       .  S
Al1527     O1537   2.068       .  S
Al1527     O1532   1.784       .  S
O1528      C1535   1.255       .  A
O1528     Al1536   1.871       .  S
O1529      C1538   1.254       .  A
O1529     Al1536   1.893       .  S
O1530     Al1536   2.006       .  S
O1531      C1538   1.285       .  A
O1532     Al1536   1.731       .  S
O1533      C1534   1.247       .  A
C1534      C1644   1.491       .  S
C1535      C1561   1.471       .  S
C1539      O1540   1.283       .  A
O1541      C1556   1.275       .  A
O1541     Al1549   2.036       .  S
C1542      O1552   1.286   1_565  A
C1542      O1543   1.241   1_565  A
C1542      C2066   1.460       .  S
O1543     Al1545   1.821   1_545  S
O1544      C1546   1.253       .  A
O1544     Al1545   1.883       .  S
Al1545     O1553   1.955   1_565  S
Al1545     O1555   1.884       .  S
Al1545     O1554   1.731       .  S
C1546      O1559   1.297       .  A
C1546      C1942   1.490       .  S
O1547      C1557   1.275       .  A
O1547     Al1549   1.980       .  S
O1548      C1561   1.257       .  A
O1548     Al1558   1.893       .  S
Al1549     O1562   2.020   1_565  S
Al1549     O1559   2.067       .  S
Al1549     O1554   1.785       .  S
O1550      C1557   1.255   1_545  A
O1550     Al1558   1.870       .  S
O1551      C1560   1.254       .  A
O1551     Al1558   1.892       .  S
O1552     Al1558   2.008       .  S
O1553      C1560   1.288       .  A
O1554     Al1558   1.734   1_565  S
O1555      C1556   1.248       .  A
C1556      C2084   1.494   1_565  S
C1560      C2026   1.454       .  S
C1561      O1562   1.282       .  A
O1563      C1578   1.285       .  A
O1563     Al1571   1.998       .  S
C1564      O1574   1.274       .  A
C1564      O1565   1.248       .  A
O1565     Al1567   1.883   1_545  S
O1566      C1568   1.288   1_545  A
O1566     Al1567   1.960   1_645  S
Al1567     O1575   1.887       .  S
Al1567     O1577   1.817   1_455  S
Al1567     O1576   1.728       .  S
C1568      O1581   1.253       .  A
O1569      C1579   1.255       .  A
O1569     Al1571   1.890   1_545  S
O1570      C1583   1.274       .  A
O1570     Al1580   1.974   1_565  S
Al1571     O1584   1.871       .  S
Al1571     O1581   1.891       .  S
Al1571     O1576   1.733   1_655  S
O1572      C1579   1.284       .  A
O1572     Al1580   2.029   1_655  S
O1573      C1582   1.298   1_545  A
O1573     Al1580   2.074       .  S
O1574     Al1580   2.030       .  S
O1575      C1582   1.254       .  A
O1576     Al1580   1.784   1_565  S
O1577      C1578   1.242       .  A
C1583      O1584   1.254   1_455  A
O1585      C1600   1.276       .  A
O1585     Al1593   2.034       .  S
C1586      O1596   1.284       .  A
C1586      O1587   1.241       .  A
C1586      C1648   1.456       .  S
O1587     Al1589   1.820       .  S
O1588      C1590   1.253       .  A
O1588     Al1589   1.884       .  S
Al1589     O1597   1.956       .  S
Al1589     O1599   1.884       .  S
Al1589     O1598   1.728       .  S
C1590      O1603   1.296       .  A
O1591      C1601   1.272       .  A
O1591     Al1593   1.970       .  S
O1592      C1605   1.256       .  A
O1592     Al1602   1.892       .  S
Al1593     O1606   2.020       .  S
Al1593     O1603   2.061       .  S
Al1593     O1598   1.785       .  S
O1594      C1601   1.254       .  A
O1594     Al1602   1.869       .  S
O1595      C1604   1.254       .  A
O1595     Al1602   1.893       .  S
O1596     Al1602   2.002       .  S
O1597      C1604   1.288       .  A
O1598     Al1602   1.733       .  S
O1599      C1600   1.248       .  A
C1601      C1671   1.467       .  S
C1604      C1608   1.453       .  S
C1605      O1606   1.282       .  A
C1605      C1689   1.470       .  S
O1607      C1622   1.277       .  A
O1607     Al1615   2.038       .  S
C1608      O1618   1.284       .  A
C1608      O1609   1.241       .  A
O1609     Al1611   1.817       .  S
O1610      C1612   1.253       .  A
O1610     Al1611   1.886       .  S
Al1611     O1619   1.956       .  S
Al1611     O1621   1.883       .  S
Al1611     O1620   1.731       .  S
C1612      O1625   1.296       .  A
O1613      C1623   1.276       .  A
O1613     Al1615   1.985       .  S
O1614      C1627   1.257       .  A
O1614     Al1624   1.892       .  S
Al1615     O1628   2.021       .  S
Al1615     O1625   2.068       .  S
Al1615     O1620   1.782       .  S
O1616      C1623   1.254       .  A
O1616     Al1624   1.871       .  S
O1617      C1626   1.255       .  A
O1617     Al1624   1.896       .  S
O1618     Al1624   1.999       .  S
O1619      C1626   1.287       .  A
O1620     Al1624   1.736       .  S
O1621      C1622   1.247       .  A
C1623      C1781   1.477       .  S
C1626      C1630   1.454       .  S
C1627      O1628   1.283       .  A
C1627      C1887   1.472       .  S
O1629      C1644   1.273       .  A
O1629     Al1637   2.026       .  S
C1630      O1640   1.284       .  A
C1630      O1631   1.240       .  A
O1631     Al1633   1.817       .  S
O1632      C1634   1.253       .  A
O1632     Al1633   1.886       .  S
Al1633     O1641   1.956       .  S
Al1633     O1643   1.883       .  S
Al1633     O1642   1.727       .  S
C1634      O1647   1.294       .  A
O1635      C1645   1.272       .  A
O1635     Al1637   1.970       .  S
O1636      C1649   1.257       .  A
O1636     Al1646   1.892       .  S
Al1637     O1650   2.004       .  S
Al1637     O1647   2.053       .  S
Al1637     O1642   1.788       .  S
O1638      C1645   1.255       .  A
O1638     Al1646   1.871       .  S
O1639      C1648   1.255       .  A
O1639     Al1646   1.898       .  S
O1640     Al1646   2.000       .  S
O1641      C1648   1.287       .  A
O1642     Al1646   1.732       .  S
O1643      C1644   1.249       .  A
C1645      C1825   1.468       .  S
C1649      O1650   1.280       .  A
C1649      C1733   1.460       .  S
O1651      C1666   1.273       .  A
O1651     Al1659   2.024       .  S
C1652      O1662   1.284       .  A
C1652      O1653   1.241       .  A
C1652      C1758   1.457       .  S
O1653     Al1655   1.820       .  S
O1654      C1656   1.252       .  A
O1654     Al1655   1.882       .  S
Al1655     O1663   1.956       .  S
Al1655     O1665   1.882       .  S
Al1655     O1664   1.728       .  S
C1656      O1669   1.295       .  A
O1657      C1667   1.272       .  A
O1657     Al1659   1.968       .  S
O1658      C1671   1.257       .  A
O1658     Al1668   1.894       .  S
Al1659     O1672   2.015       .  S
Al1659     O1669   2.060       .  S
Al1659     O1664   1.787       .  S
O1660      C1667   1.255       .  A
O1660     Al1668   1.869       .  S
O1661      C1670   1.255       .  A
O1661     Al1668   1.899       .  S
O1662     Al1668   2.003       .  S
O1663      C1670   1.287       .  A
O1664     Al1668   1.732       .  S
O1665      C1666   1.248       .  A
C1667      C1693   1.467       .  S
C1670      C1718   1.456       .  S
C1671      O1672   1.282       .  A
O1673      C1688   1.273       .  A
O1673     Al1681   2.025       .  S
C1674      O1684   1.284       .  A
C1674      O1675   1.241       .  A
C1674      C1780   1.454       .  S
O1675     Al1677   1.819       .  S
O1676      C1678   1.253       .  A
O1676     Al1677   1.882       .  S
Al1677     O1685   1.957       .  S
Al1677     O1687   1.881       .  S
Al1677     O1686   1.728       .  S
C1678      O1691   1.295       .  A
O1679      C1689   1.272       .  A
O1679     Al1681   1.968       .  S
O1680      C1693   1.256       .  A
O1680     Al1690   1.892       .  S
Al1681     O1694   2.016       .  S
Al1681     O1691   2.060       .  S
Al1681     O1686   1.787       .  S
O1682      C1689   1.256       .  A
O1682     Al1690   1.873       .  S
O1683      C1692   1.255       .  A
O1683     Al1690   1.899       .  S
O1684     Al1690   2.000       .  S
O1685      C1692   1.287       .  A
O1686     Al1690   1.732       .  S
O1687      C1688   1.248       .  A
C1692      C1784   1.456       .  S
C1693      O1694   1.282       .  A
O1695      C1710   1.277   1_565  A
O1695     Al1703   2.037   1_565  S
C1696      O1706   1.284       .  A
C1696      O1697   1.243       .  A
O1697     Al1699   1.824       .  S
O1698      C1700   1.254       .  A
O1698     Al1699   1.885   1_545  S
Al1699     O1707   1.958   1_556  S
Al1699     O1709   1.885   1_566  S
Al1699     O1708   1.727       .  S
C1700      O1713   1.296   1_556  A
O1701      C1711   1.274       .  A
O1701     Al1703   1.976   1_556  S
O1702      C1715   1.255       .  A
O1702     Al1712   1.891   1_554  S
Al1703     O1716   2.025   1_545  S
Al1703     O1713   2.064       .  S
Al1703     O1708   1.783   1_544  S
O1704      C1711   1.254   1_565  A
O1704     Al1712   1.871       .  S
O1705      C1714   1.254       .  A
O1705     Al1712   1.894       .  S
O1706     Al1712   1.998       .  S
O1707      C1714   1.288   1_554  A
O1708     Al1712   1.735       .  S
O1709      C1710   1.249       .  A
C1715      O1716   1.283       .  A
O1717      C1732   1.272       .  A
O1717     Al1725   2.017       .  S
C1718      O1728   1.285       .  A
C1718      O1719   1.241       .  A
O1719     Al1721   1.819       .  S
O1720      C1722   1.253       .  A
O1720     Al1721   1.884       .  S
Al1721     O1729   1.959       .  S
Al1721     O1731   1.879       .  S
Al1721     O1730   1.726       .  S
C1722      O1735   1.295       .  A
O1723      C1733   1.270       .  A
O1723     Al1725   1.958       .  S
O1724      C1737   1.256       .  A
O1724     Al1734   1.893       .  S
Al1725     O1738   2.019       .  S
Al1725     O1735   2.059       .  S
Al1725     O1730   1.788       .  S
O1726      C1733   1.255       .  A
O1726     Al1734   1.868       .  S
O1727      C1736   1.254       .  A
O1727     Al1734   1.894       .  S
O1728     Al1734   2.003       .  S
O1729      C1736   1.288       .  A
O1730     Al1734   1.731       .  S
O1731      C1732   1.248       .  A
C1736      C1740   1.455       .  S
C1737      O1738   1.282       .  A
C1737      C1821   1.468       .  S
O1739      C1754   1.275       .  A
O1739     Al1747   2.032       .  S
C1740      O1750   1.285       .  A
C1740      O1741   1.240       .  A
O1741     Al1743   1.816       .  S
O1742      C1744   1.253       .  A
O1742     Al1743   1.884       .  S
Al1743     O1751   1.957       .  S
Al1743     O1753   1.881       .  S
Al1743     O1752   1.731       .  S
C1744      O1757   1.297       .  A
O1745      C1755   1.274       .  A
O1745     Al1747   1.976       .  S
O1746      C1759   1.257       .  A
O1746     Al1756   1.894       .  S
Al1747     O1760   2.022       .  S
Al1747     O1757   2.068       .  S
Al1747     O1752   1.785       .  S
O1748      C1755   1.255       .  A
O1748     Al1756   1.873       .  S
O1749      C1758   1.255       .  A
O1749     Al1756   1.898       .  S
O1750     Al1756   2.004       .  S
O1751      C1758   1.288       .  A
O1752     Al1756   1.733       .  S
O1753      C1754   1.247       .  A
C1755      C1869   1.473       .  S
C1759      O1760   1.283       .  A
C1759      C1799   1.472       .  S
O1761      C1776   1.275       .  A
O1761     Al1769   2.031       .  S
C1762      O1772   1.285       .  A
C1762      O1763   1.241       .  A
C1762      C1802   1.455       .  S
O1763     Al1765   1.817       .  S
O1764      C1766   1.252       .  A
O1764     Al1765   1.884       .  S
Al1765     O1773   1.955       .  S
Al1765     O1775   1.882       .  S
Al1765     O1774   1.731       .  S
C1766      O1779   1.298       .  A
O1767      C1777   1.274       .  A
O1767     Al1769   1.977       .  S
O1768      C1781   1.257       .  A
O1768     Al1778   1.895       .  S
Al1769     O1782   2.029       .  S
Al1769     O1779   2.073       .  S
Al1769     O1774   1.783       .  S
O1770      C1777   1.255       .  A
O1770     Al1778   1.871       .  S
O1771      C1780   1.255       .  A
O1771     Al1778   1.896       .  S
O1772     Al1778   2.003       .  S
O1773      C1780   1.287       .  A
O1774     Al1778   1.734       .  S
O1775      C1776   1.248       .  A
C1777      C1891   1.473       .  S
C1781      O1782   1.284       .  A
O1783      C1798   1.276       .  A
O1783     Al1791   2.034       .  S
C1784      O1794   1.285       .  A
C1784      O1785   1.241       .  A
O1785     Al1787   1.818       .  S
O1786      C1788   1.253       .  A
O1786     Al1787   1.886       .  S
Al1787     O1795   1.957       .  S
Al1787     O1797   1.882       .  S
Al1787     O1796   1.731       .  S
C1788      O1801   1.297       .  A
O1789      C1799   1.274       .  A
O1789     Al1791   1.976       .  S
O1790      C1803   1.257       .  A
O1790     Al1800   1.895       .  S
Al1791     O1804   2.028       .  S
Al1791     O1801   2.071       .  S
Al1791     O1796   1.784       .  S
O1792      C1799   1.254       .  A
O1792     Al1800   1.871       .  S
O1793      C1802   1.254       .  A
O1793     Al1800   1.894       .  S
O1794     Al1800   2.003       .  S
O1795      C1802   1.288       .  A
O1796     Al1800   1.734       .  S
O1797      C1798   1.247       .  A
C1803      O1804   1.284       .  A
C1803      C1865   1.476       .  S
O1805      C1820   1.273       .  A
O1805     Al1813   2.024       .  S
C1806      O1816   1.284       .  A
C1806      O1807   1.241       .  A
C1806      C1868   1.455       .  S
O1807     Al1809   1.818       .  S
O1808      C1810   1.252       .  A
O1808     Al1809   1.882       .  S
Al1809     O1817   1.956       .  S
Al1809     O1819   1.881       .  S
Al1809     O1818   1.729       .  S
C1810      O1823   1.296       .  A
O1811      C1821   1.272       .  A
O1811     Al1813   1.968       .  S
O1812      C1825   1.257       .  A
O1812     Al1822   1.892       .  S
Al1813     O1826   2.016       .  S
Al1813     O1823   2.062       .  S
Al1813     O1818   1.787       .  S
O1814      C1821   1.255       .  A
O1814     Al1822   1.868       .  S
O1815      C1824   1.255       .  A
O1815     Al1822   1.897       .  S
O1816     Al1822   2.002       .  S
O1817      C1824   1.287       .  A
O1818     Al1822   1.732       .  S
O1819      C1820   1.248       .  A
C1824      C1872   1.455       .  S
C1825      O1826   1.282       .  A
O1827      C1842   1.277   1_556  A
O1827     Al1835   2.041   1_556  S
C1828      O1838   1.282       .  A
C1828      O1829   1.241       .  A
O1829     Al1831   1.818   1_655  S
O1830      C1832   1.253   1_655  A
O1830     Al1831   1.885   1_654  S
Al1831     O1839   1.958       .  S
Al1831     O1841   1.882   1_556  S
Al1831     O1840   1.732       .  S
C1832      O1845   1.297       .  A
O1833      C1843   1.276       .  A
O1833     Al1835   1.982   1_655  S
O1834      C1847   1.255       .  A
O1834     Al1844   1.882   1_455  S
Al1835     O1848   2.017   1_554  S
Al1835     O1845   2.071       .  S
Al1835     O1840   1.783   1_554  S
O1836      C1843   1.254   1_556  A
O1836     Al1844   1.864       .  S
O1837      C1846   1.256   1_655  A
O1837     Al1844   1.900       .  S
O1838     Al1844   1.994       .  S
O1839      C1846   1.287       .  A
O1840     Al1844   1.737   1_455  S
O1841      C1842   1.246       .  A
C1847      O1848   1.282       .  A
O1849      C1864   1.276       .  A
O1849     Al1857   2.034       .  S
C1850      O1860   1.284       .  A
C1850      O1851   1.241       .  A
C1850      C1890   1.454       .  S
O1851     Al1853   1.817       .  S
O1852      C1854   1.252       .  A
O1852     Al1853   1.884       .  S
Al1853     O1861   1.957       .  S
Al1853     O1863   1.883       .  S
Al1853     O1862   1.730       .  S
C1854      O1867   1.297       .  A
O1855      C1865   1.275       .  A
O1855     Al1857   1.981       .  S
O1856      C1869   1.256       .  A
O1856     Al1866   1.893       .  S
Al1857     O1870   2.026       .  S
Al1857     O1867   2.071       .  S
Al1857     O1862   1.783       .  S
O1858      C1865   1.255       .  A
O1858     Al1866   1.873       .  S
O1859      C1868   1.254       .  A
O1859     Al1866   1.895       .  S
O1860     Al1866   2.000       .  S
O1861      C1868   1.287       .  A
O1862     Al1866   1.733       .  S
O1863      C1864   1.248       .  A
C1869      O1870   1.284       .  A
O1871      C1886   1.275       .  A
O1871     Al1879   2.032       .  S
C1872      O1882   1.284       .  A
C1872      O1873   1.241       .  A
O1873     Al1875   1.819       .  S
O1874      C1876   1.253       .  A
O1874     Al1875   1.884       .  S
Al1875     O1883   1.956       .  S
Al1875     O1885   1.881       .  S
Al1875     O1884   1.730       .  S
C1876      O1889   1.297       .  A
O1877      C1887   1.273       .  A
O1877     Al1879   1.974       .  S
O1878      C1891   1.256       .  A
O1878     Al1888   1.894       .  S
Al1879     O1892   2.025       .  S
Al1879     O1889   2.067       .  S
Al1879     O1884   1.784       .  S
O1880      C1887   1.255       .  A
O1880     Al1888   1.873       .  S
O1881      C1890   1.255       .  A
O1881     Al1888   1.895       .  S
O1882     Al1888   2.001       .  S
O1883      C1890   1.288       .  A
O1884     Al1888   1.734       .  S
O1885      C1886   1.247       .  A
C1891      O1892   1.283       .  A
O1893      C1908   1.272       .  A
O1893     Al1901   2.023       .  S
C1894      O1904   1.283       .  A
C1894      O1895   1.241       .  A
O1895     Al1897   1.817       .  S
O1896      C1898   1.253       .  A
O1896     Al1897   1.884       .  S
Al1897     O1905   1.960       .  S
Al1897     O1907   1.880       .  S
Al1897     O1906   1.727       .  S
C1898      O1911   1.297       .  A
O1899      C1909   1.270       .  A
O1899     Al1901   1.963       .  S
O1900      C1913   1.253       .  A
O1900     Al1910   1.884       .  S
Al1901     O1914   2.017       .  S
Al1901     O1911   2.067       .  S
Al1901     O1906   1.786       .  S
O1902      C1909   1.256       .  A
O1902     Al1910   1.869       .  S
O1903      C1912   1.255       .  A
O1903     Al1910   1.896       .  S
O1904     Al1910   1.995       .  S
O1905      C1912   1.289       .  A
O1906     Al1910   1.734       .  S
O1907      C1908   1.247       .  A
C1913      O1914   1.283       .  A
C1913      C2107   1.464       .  S
O1915      C1930   1.276       .  A
O1915     Al1923   2.036       .  S
C1916      O1926   1.284       .  A
C1916      O1917   1.242       .  A
O1917     Al1919   1.822       .  S
O1918      C1920   1.252       .  A
O1918     Al1919   1.880       .  S
Al1919     O1927   1.956       .  S
Al1919     O1929   1.884       .  S
Al1919     O1928   1.728       .  S
C1920      O1933   1.297       .  A
O1921      C1931   1.273       .  A
O1921     Al1923   1.974       .  S
O1922      C1935   1.254       .  A
O1922     Al1932   1.889       .  S
Al1923     O1936   2.025       .  S
Al1923     O1933   2.066       .  S
Al1923     O1928   1.784       .  S
O1924      C1931   1.255       .  A
O1924     Al1932   1.875       .  S
O1925      C1934   1.255       .  A
O1925     Al1932   1.895       .  S
O1926     Al1932   1.999       .  S
O1927      C1934   1.287       .  A
O1928     Al1932   1.732       .  S
O1929      C1930   1.248       .  A
C1931      C2089   1.473       .  S
C1935      O1936   1.283       .  A
O1937      C1952   1.273       .  A
O1937     Al1945   2.020       .  S
C1938      O1948   1.285       .  A
C1938      O1939   1.240       .  A
C1938      C2088   1.454       .  S
O1939     Al1941   1.814       .  S
O1940      C1942   1.253       .  A
O1940     Al1941   1.888       .  S
Al1941     O1949   1.960       .  S
Al1941     O1951   1.880       .  S
Al1941     O1950   1.730       .  S
C1942      O1955   1.296       .  A
O1943      C1953   1.273       .  A
O1943     Al1945   1.972       .  S
O1944      C1957   1.258       .  A
O1944     Al1954   1.896       .  S
Al1945     O1958   2.019       .  S
Al1945     O1955   2.064       .  S
Al1945     O1950   1.786       .  S
O1946      C1953   1.254       .  A
O1946     Al1954   1.869       .  S
O1947      C1956   1.254       .  A
O1947     Al1954   1.895       .  S
O1948     Al1954   2.003       .  S
O1949      C1956   1.288       .  A
O1950     Al1954   1.733       .  S
O1951      C1952   1.248       .  A
C1952      C2062   1.485       .  S
C1957      O1958   1.283       .  A
O1959      C1974   1.298       .  A
O1959     Al1967   1.948       .  S
C1960      O1970   1.277       .  A
C1960      O1961   1.235       .  A
O1961     Al1963   1.874       .  S
O1962      C1964   1.242       .  A
O1962     Al1963   1.924       .  S
Al1963     O1971   1.936       .  S
Al1963     O1973   1.914       .  S
Al1963     O1972   1.707       .  S
C1964      O1977   1.237       .  A
C1964      C2092   1.437       .  S
O1965      C1975   1.277       .  A
O1965     Al1967   1.888       .  S
O1966      C1979   1.254       .  A
O1966     Al1976   1.968       .  S
Al1967     O1980   1.853       .  S
Al1967     O1977   1.904       .  S
Al1967     O1972   1.730       .  S
O1968      C1975   1.306       .  A
O1968     Al1976   2.049       .  S
O1969      C1978   1.274       .  A
O1969     Al1976   2.001       .  S
O1970     Al1976   2.012       .  S
O1971      C1978   1.276       .  A
O1972     Al1976   1.774       .  S
O1973      C1974   1.282       .  A
C1978      C2008   1.528       .  S
C1979      O1980   1.238       .  A
O1981      C1996   1.271       .  A
O1981     Al1989   1.968       .  S
C1982      O1992   1.277       .  A
C1982      O1983   1.256       .  A
C1982      C2106   1.491       .  S
O1983     Al1985   1.898       .  S
O1984      C1986   1.269       .  A
O1984     Al1985   1.909       .  S
Al1985     O1993   1.894       .  S
Al1985     O1995   1.805       .  S
Al1985     O1994   1.732       .  S
C1986      O1999   1.265       .  A
O1987      C1997   1.259       .  A
O1987     Al1989   1.900       .  S
O1988      C2001   1.274       .  A
O1988     Al1998   1.959       .  S
Al1989     O2002   1.894       .  S
Al1989     O1999   1.931       .  S
Al1989     O1994   1.738       .  S
O1990      C1997   1.284       .  A
O1990     Al1998   2.035       .  S
O1991      C2000   1.298       .  A
O1991     Al1998   2.086       .  S
O1992     Al1998   2.017       .  S
O1993      C2000   1.247       .  A
O1994     Al1998   1.783       .  S
O1995      C1996   1.242       .  A
C1996      C2022   1.444       .  S
C2001      O2002   1.263       .  A
C2001      C2045   1.467       .  S
O2003      C2018   1.272       .  A
O2003     Al2011   2.027       .  S
C2004      O2014   1.275       .  A
C2004      O2005   1.254       .  A
O2005     Al2007   1.878       .  S
O2006      C2008   1.254       .  A
O2006     Al2007   1.849   1_655  S
Al2007     O2015   1.928       .  S
Al2007     O2017   1.870   1_455  S
Al2007     O2016   1.722       .  S
C2008      O2021   1.307       .  A
O2009      C2019   1.272       .  A
O2009     Al2011   1.957       .  S
O2010      C2023   1.250       .  A
O2010     Al2020   1.892       .  S
Al2011     O2024   2.065   1_655  S
Al2011     O2021   2.114       .  S
Al2011     O2016   1.774   1_655  S
O2012      C2019   1.259   1_455  A
O2012     Al2020   1.898       .  S
O2013      C2022   1.257       .  A
O2013     Al2020   1.931       .  S
O2014     Al2020   1.950       .  S
O2015      C2022   1.272       .  A
O2016     Al2020   1.744       .  S
O2017      C2018   1.248       .  A
C2023      O2024   1.292       .  A
C2023      C2063   1.485       .  S
O2025      C2040   1.274       .  A
O2025     Al2033   2.031       .  S
C2026      O2036   1.284       .  A
C2026      O2027   1.241       .  A
O2027     Al2029   1.818       .  S
O2028      C2030   1.253       .  A
O2028     Al2029   1.887       .  S
Al2029     O2037   1.957       .  S
Al2029     O2039   1.880       .  S
Al2029     O2038   1.732       .  S
C2030      O2043   1.296       .  A
C2030      C2074   1.492       .  S
O2031      C2041   1.276       .  A
O2031     Al2033   1.979       .  S
O2032      C2045   1.257       .  A
O2032     Al2042   1.886       .  S
Al2033     O2046   2.010       .  S
Al2033     O2043   2.068       .  S
Al2033     O2038   1.783       .  S
O2034      C2041   1.253       .  A
O2034     Al2042   1.860       .  S
O2035      C2044   1.255       .  A
O2035     Al2042   1.897       .  S
O2036     Al2042   1.999       .  S
O2037      C2044   1.287       .  A
O2038     Al2042   1.737       .  S
O2039      C2040   1.247       .  A
C2044      C2048   1.455       .  S
C2045      O2046   1.281       .  A
O2047      C2062   1.272       .  A
O2047     Al2055   2.021       .  S
C2048      O2058   1.286       .  A
C2048      O2049   1.241       .  A
O2049     Al2051   1.819   1_545  S
O2050      C2052   1.251   1_545  A
O2050     Al2051   1.875   1_545  S
Al2051     O2059   1.958       .  S
Al2051     O2061   1.879       .  S
Al2051     O2060   1.726       .  S
C2052      O2065   1.297       .  A
O2053      C2063   1.271   1_565  A
O2053     Al2055   1.970       .  S
O2054      C2067   1.252       .  A
O2054     Al2064   1.886   1_565  S
Al2055     O2068   2.027       .  S
Al2055     O2065   2.064       .  S
Al2055     O2060   1.790       .  S
O2056      C2063   1.260       .  A
O2056     Al2064   1.900       .  S
O2057      C2066   1.257   1_545  A
O2057     Al2064   1.910       .  S
O2058     Al2064   2.002       .  S
O2059      C2066   1.287       .  A
O2060     Al2064   1.724   1_565  S
O2061      C2062   1.248       .  A
C2067      O2068   1.283       .  A
O2069      C2084   1.277       .  A
O2069     Al2077   2.037       .  S
C2070      O2080   1.284       .  A
C2070      O2071   1.242       .  A
O2071     Al2073   1.822       .  S
O2072      C2074   1.254       .  A
O2072     Al2073   1.886   1_545  S
Al2073     O2081   1.957       .  S
Al2073     O2083   1.882   1_565  S
Al2073     O2082   1.729       .  S
C2074      O2087   1.296       .  A
O2075      C2085   1.275       .  A
O2075     Al2077   1.979       .  S
O2076      C2089   1.257       .  A
O2076     Al2086   1.894       .  S
Al2077     O2090   2.026   1_545  S
Al2077     O2087   2.067       .  S
Al2077     O2082   1.782   1_545  S
O2078      C2085   1.253   1_565  A
O2078     Al2086   1.870       .  S
O2079      C2088   1.254       .  A
O2079     Al2086   1.895       .  S
O2080     Al2086   2.000       .  S
O2081      C2088   1.287       .  A
O2082     Al2086   1.736       .  S
O2083      C2084   1.248       .  A
C2089      O2090   1.284       .  A
O2091      C2106   1.269       .  A
O2091     Al2099   2.013       .  S
C2092      O2102   1.275       .  A
C2092      O2093   1.254       .  A
O2093     Al2095   1.873   1_655  S
O2094      C2096   1.255       .  A
O2094     Al2095   1.851   1_655  S
Al2095     O2103   1.926       .  S
Al2095     O2105   1.865       .  S
Al2095     O2104   1.723       .  S
C2096      O2109   1.305   1_655  A
O2097      C2107   1.271       .  A
O2097     Al2099   1.952   1_655  S
O2098      C2111   1.252       .  A
O2098     Al2108   1.895   1_455  S
Al2099     O2112   2.058       .  S
Al2099     O2109   2.108       .  S
Al2099     O2104   1.781       .  S
O2100      C2107   1.261       .  A
O2100     Al2108   1.903       .  S
O2101      C2110   1.257   1_655  A
O2101     Al2108   1.933       .  S
O2102     Al2108   1.947       .  S
O2103      C2110   1.271       .  A
O2104     Al2108   1.741   1_455  S
O2105      C2106   1.249       .  A
C2111      O2112   1.291       .  A
