geometry optimzed in LAMMPS
_audit_creation_date              2020-11-30 
_audit_creation_method            'lammps2cif' 
_symmetry_space_group_name_H-M    'P1' 
_symmetry_Int_Tables_number       1 
_symmetry_cell_setting            triclinic 
loop_ 
_symmetry_equiv_pos_as_xyz 
  x,y,z 
_cell_length_a                    72.10376797 
_cell_length_b                    71.68420419644183 
_cell_length_c                    26.25406304568428 
_cell_angle_alpha                 90.61339467020136 
_cell_angle_beta                  89.56497803710359 
_cell_angle_gamma                 120.52804825706019 
loop_ 
_atom_site_label 
_atom_site_type_symbol 
_atom_site_fract_x 
_atom_site_fract_y 
_atom_site_fract_z 
_atom_site_charge 
C1          C  0.45946494  0.10899829  0.46656231     0.86000
C2          C  0.44422156  0.08641759  0.48894796    -0.54200
C3          C  0.44615067  0.07022208  0.46619908     0.09000
C4          C  0.46291907  0.07789010  0.42304484     0.19900
C5          C  0.48200258  0.11176534  0.46951038    -0.54900
C6          C  0.48397836  0.09573713  0.44650464     0.09100
C7          C  0.45430932  0.10617715  0.40895754    -0.54500
C8          C  0.45632966  0.09001490  0.38619006     0.09600
H9          H  0.43345685  0.08361104  0.52083322     0.14200
H10         H  0.46424242  0.06456334  0.40482431    -0.00100
H11         H  0.49548907  0.12570418  0.48766307     0.14500
H12         H  0.45039930  0.11636203  0.38692277     0.14200
C13         C  0.35646461  0.90423368  0.49418354     0.86000
C14         C  0.35982730  0.92685231  0.48309635    -0.54200
C15         C  0.37439854  0.94295081  0.51494169     0.09000
C16         C  0.38345387  0.93460578  0.55615616     0.19900
C17         C  0.37948644  0.90768122  0.49359905    -0.54900
C18         C  0.39350091  0.92358633  0.52586421     0.09100
C19         C  0.35000834  0.90023947  0.55070337    -0.54500
C20         C  0.36397664  0.91602507  0.58307781     0.09600
H21         H  0.35256054  0.92997752  0.45071126     0.14200
H22         H  0.39481579  0.94720533  0.58306670    -0.00100
H23         H  0.38442452  0.89792731  0.47228259     0.14500
H24         H  0.33578556  0.88571299  0.56422321     0.14200
C25         C  0.35184677  0.90394610  0.96810927     0.86000
C26         C  0.37315558  0.90379955  0.96788454    -0.54200
C27         C  0.38984568  0.92094901  0.94384426     0.09000
C28         C  0.38363736  0.93665068  0.92075482     0.19900
C29         C  0.35773968  0.92616828  0.99060039    -0.54900
C30         C  0.37434691  0.94339225  0.96575392     0.09100
C31         C  0.34773326  0.90532663  0.91110698    -0.54500
C32         C  0.36426637  0.92238880  0.88644721     0.09600
H33         H  0.37486607  0.89089896  0.98416476     0.14200
H34         H  0.39726119  0.95031815  0.90059036    -0.00100
H35         H  0.34934071  0.92800689  0.02299202     0.14500
H36         H  0.33353127  0.89336334  0.89078467     0.14200
C37         C  0.45721098  0.11086442  0.00403352     0.86000
C38         C  0.47780019  0.10952363  0.00698311    -0.54200
C39         C  0.47536886  0.09174142  0.03144377     0.09000
C40         C  0.45257361  0.07689522  0.05164526     0.19900
C41         C  0.44031865  0.08912874  0.97987431    -0.54900
C42         C  0.43782251  0.07132583  0.00505268     0.09100
C43         C  0.44996792  0.10929273  0.06020310    -0.54500
C44         C  0.44778160  0.09162377  0.08497431     0.09600
H45         H  0.49302216  0.12157244  0.99028333     0.14200
H46         H  0.45089221  0.06263261  0.07205741    -0.00100
H47         H  0.43130027  0.08799783  0.94589911     0.14500
H48         H  0.44787830  0.12131104  0.08044852     0.14200
In49       In  0.52177564  0.27021371  0.85986787     1.36900
C50         C  0.49964378  0.23034990  0.89841626     0.77100
O51         O  0.50540636  0.25709492  0.78389432    -0.61300
O52         O  0.53698012  0.28415297  0.78247006    -0.52200
C53         C  0.50729686  0.29684486  0.88555576     0.69800
O54         O  0.49485705  0.27712592  0.87455247    -0.47100
C55         C  0.55807033  0.28178030  0.91226332     0.74500
O56         O  0.49722738  0.24572448  0.91349706    -0.58900
O57         O  0.55458052  0.27324646  0.86840488    -0.49000
O58         O  0.51306405  0.23524172  0.86270176    -0.55400
C59         C  0.52086859  0.27056633  0.75700016     0.84700
O60         O  0.52703870  0.30310857  0.88073794    -0.57300
O61         O  0.54336358  0.28489277  0.92827909    -0.60600
In62       In  0.51791649  0.26862743  0.59801200     1.36900
C63         C  0.49440105  0.22796564  0.56282944     0.77100
O64         O  0.54023814  0.28629122  0.53163860    -0.61300
O65         O  0.54925431  0.26944926  0.58134267    -0.52200
C66         C  0.50081681  0.29350547  0.58066877     0.69800
O67         O  0.49100896  0.27346081  0.57124924    -0.47100
C68         C  0.51997003  0.27016181  0.70063069     0.74500
O69         O  0.50565745  0.23277441  0.60264664    -0.58900
O70         O  0.53555245  0.28292580  0.67277291    -0.49000
O71         O  0.49475738  0.24388533  0.54191893    -0.55400
C72         C  0.55368660  0.28062334  0.54156033     0.84700
O73         O  0.51906850  0.30067797  0.60076719    -0.57300
O74         O  0.50342129  0.25679269  0.67618701    -0.60600
In75       In  0.26007245  0.74440531  0.10133059     1.36900
C76         C  0.28235905  0.78731315  0.08967303     0.77100
O77         O  0.24881351  0.74875690  0.17848165    -0.61300
O78         O  0.27146080  0.73814393  0.17561544    -0.52200
C79         C  0.21914050  0.72202402  0.07004176     0.69800
O80         O  0.23321151  0.73937710  0.04956842    -0.47100
C81         C  0.27851884  0.72752085  0.04124031     0.74500
O82         O  0.26361290  0.77556295  0.07198595    -0.58900
O83         O  0.26601451  0.71727027  0.07748591    -0.49000
O84         O  0.28933073  0.77709790  0.11422508    -0.55400
C85         C  0.26017045  0.74319467  0.20300474     0.84700
O86         O  0.22592713  0.71627921  0.10727523    -0.57300
O87         O  0.28204784  0.74648423  0.03684961    -0.60600
C88         C  0.33026803  0.66402391  0.90549864    -0.02900
In89       In  0.47805492  0.74692557  0.12289290     1.36900
C90         C  0.49530790  0.72175181  0.10253770     0.77100
O91         O  0.49362790  0.75493779  0.20073565    -0.61300
O92         O  0.45975728  0.74002471  0.19845797    -0.52200
C93         C  0.49846435  0.78857092  0.09454227     0.69800
O94         O  0.50273156  0.77481796  0.07647389    -0.47100
C95         C  0.44323058  0.73113277  0.06112936     0.74500
O96         O  0.50643199  0.74138301  0.11531440    -0.58900
O97         O  0.44171433  0.72711477  0.10830394    -0.49000
O98         O  0.47538368  0.71484902  0.10155769    -0.55400
C99         C  0.47643122  0.74781777  0.22579499     0.84700
O100        O  0.48378828  0.78109004  0.12785859    -0.57300
O101        O  0.46233214  0.74339653  0.04634316    -0.60600
In102      In  0.47614841  0.74829270  0.38504462     1.36900
C103        C  0.48672342  0.78871576  0.40929628     0.77100
O104        O  0.49309174  0.75643442  0.30851606    -0.61300
O105        O  0.45909555  0.74075947  0.30833576    -0.52200
C106        C  0.49986459  0.73300570  0.42527930     0.69800
O107        O  0.49751249  0.74754958  0.44610752    -0.47100
C108        C  0.43944759  0.72231157  0.43567041     0.74500
O109        O  0.50076501  0.78325737  0.40446180    -0.58900
O110        O  0.45362474  0.74060548  0.45193331    -0.49000
O111        O  0.46792269  0.77407963  0.39751572    -0.55400
C112        C  0.47613890  0.74841941  0.28223040     0.84700
O113        O  0.49074753  0.72675014  0.38265113    -0.57300
O114        O  0.44405365  0.71712305  0.39332445    -0.60600
C115        C  0.32712676  0.66677831  0.59138080    -0.02900
In116      In  0.26208864  0.74359771  0.36102148     1.36900
C117        C  0.22208040  0.72192903  0.40016075     0.77100
O118        O  0.24874938  0.74737313  0.28651698    -0.61300
O119        O  0.27261132  0.73846856  0.28354539    -0.52200
C120        C  0.28704681  0.78658858  0.37387224     0.69800
O121        O  0.29381661  0.77479048  0.35572362    -0.47100
C122        C  0.28008089  0.72401818  0.41042034     0.74500
O123        O  0.23637148  0.74034342  0.41584556    -0.58900
O124        O  0.27273170  0.71896543  0.36586544    -0.49000
O125        O  0.22813352  0.71467772  0.36366632    -0.55400
C126        C  0.26043922  0.74292427  0.25903679     0.84700
O127        O  0.26735540  0.77638379  0.38553522    -0.57300
O128        O  0.27816756  0.73907574  0.43001151    -0.60600
C129        C  0.62249768  0.10763071  0.98506304     0.86000
C130        C  0.61288261  0.08455186  0.96226464    -0.54200
C131        C  0.59649366  0.06902414  0.99117771     0.09000
C132        C  0.59117088  0.07766461  0.03944451     0.19900
C133        C  0.60304716  0.11069725  0.99229349    -0.54900
C134        C  0.58677379  0.09523620  0.02100176     0.09100
C135        C  0.62903467  0.10554133  0.03938780    -0.54500
C136        C  0.61266211  0.09003484  0.06811218     0.09600
H137        H  0.61818555  0.08057476  0.92722557     0.14200
H138        H  0.57780814  0.06483654  0.06219300    -0.00100
H139        H  0.60241048  0.12431150  0.97649867     0.14500
H140        H  0.64505840  0.11622643  0.05444376     0.14200
C141        C  0.52116679  0.90164062  0.98947661     0.86000
C142        C  0.53773373  0.92516847  0.00417915    -0.54200
C143        C  0.53628537  0.94037814  0.97598083     0.09000
C144        C  0.51818186  0.93053484  0.93588381     0.19900
C145        C  0.49920934  0.90024294  0.99305861    -0.54900
C146        C  0.49762499  0.91557275  0.96627519     0.09100
C147        C  0.52432889  0.90020733  0.93175173    -0.54500
C148        C  0.52306893  0.91545365  0.90350004     0.09600
H149        H  0.54942390  0.92930493  0.03437738     0.14200
H150        H  0.51701404  0.94281601  0.91329082    -0.00100
H151        H  0.48594255  0.88805747  0.01549823     0.14500
H152        H  0.52643519  0.88773668  0.91396435     0.14200
C153        C  0.52394031  0.90787874  0.51769255     0.86000
C154        C  0.50574919  0.91146594  0.49997607    -0.54200
C155        C  0.50522315  0.92814773  0.52375085     0.09000
C156        C  0.52337797  0.94026797  0.56280242     0.19900
C157        C  0.54455136  0.93002758  0.50855064    -0.54900
C158        C  0.54416122  0.94697652  0.53242791     0.09100
C159        C  0.52171468  0.90602298  0.57591896    -0.54500
C160        C  0.52169774  0.92302693  0.59984800     0.09600
H161        H  0.49379321  0.90115040  0.47197690     0.14200
H162        H  0.52301877  0.95405451  0.58139995    -0.00100
H163        H  0.55795785  0.93244659  0.48489190     0.14500
H164        H  0.52041180  0.89231376  0.59636592     0.14200
C165        C  0.62999403  0.10813734  0.45124051     0.86000
C166        C  0.60815264  0.10664953  0.46033643    -0.54200
C167        C  0.59098123  0.08902138  0.43866084     0.09000
C168        C  0.59711169  0.07441437  0.40928401     0.19900
C169        C  0.62660179  0.08626434  0.46967400    -0.54900
C170        C  0.60954885  0.06870232  0.44703420     0.09100
C171        C  0.63137020  0.10708785  0.39234758    -0.54500
C172        C  0.61393251  0.08948743  0.37077937     0.09600
H173        H  0.60650681  0.11881962  0.48158124     0.14200
H174        H  0.58315490  0.06006835  0.39148135    -0.00100
H175        H  0.63685195  0.08483011  0.49753587     0.14500
H176        H  0.64383251  0.11957153  0.36897471     0.14200
C177        C  0.89993344  0.37086347  0.45569277     0.86000
C178        C  0.92148140  0.37720808  0.48130397    -0.54200
C179        C  0.93916519  0.39356975  0.45723771     0.09000
C180        C  0.93359925  0.40221645  0.40972683     0.19900
C181        C  0.89977537  0.39226285  0.45216940    -0.54900
C182        C  0.91746896  0.40872829  0.42887657     0.09100
C183        C  0.90275728  0.36597639  0.39981801    -0.54500
C184        C  0.92010865  0.38236719  0.37524028     0.09600
H185        H  0.92259393  0.36946033  0.51551650     0.14200
H186        H  0.94774135  0.41566420  0.39042357    -0.00100
H187        H  0.88683544  0.39435078  0.46684143     0.14500
H188        H  0.89133024  0.35118579  0.38033386     0.14200
C189        C  0.10436611  0.46425418  0.51621447     0.86000
C190        C  0.08207127  0.44966142  0.49195147    -0.54200
C191        C  0.06579994  0.45157150  0.51402751     0.09000
C192        C  0.07344571  0.46786461  0.55881956     0.19900
C193        C  0.10772274  0.48707358  0.51487619    -0.54900
C194        C  0.09181994  0.48915087  0.53730097     0.09100
C195        C  0.10079215  0.45813726  0.57326050    -0.54500
C196        C  0.08470024  0.46023300  0.59600613     0.09600
H197        H  0.07947802  0.43882304  0.46011774     0.14200
H198        H  0.06037746  0.46970399  0.57586571    -0.00100
H199        H  0.12185109  0.50065592  0.49778820     0.14500
H200        H  0.11044077  0.45326611  0.59432686     0.14200
C201        C  0.10369122  0.46126187  0.98152611     0.86000
C202        C  0.10320423  0.48239513  0.97703692    -0.54200
C203        C  0.08596863  0.48042589  0.95113220     0.09000
C204        C  0.07082375  0.45748244  0.93101038     0.19900
C205        C  0.08162727  0.44492876  0.00490254    -0.54900
C206        C  0.06436660  0.44278916  0.97804394     0.09100
C207        C  0.10234381  0.45370499  0.92549068    -0.54500
C208        C  0.08522470  0.45183605  0.89898191     0.09600
H209        H  0.11540997  0.49763878  0.99374989     0.14200
H210        H  0.05702808  0.45622609  0.90970487    -0.00100
H211        H  0.07990941  0.43585724  0.03920571     0.14500
H212        H  0.11452646  0.45166404  0.90638660     0.14200
C213        C  0.89758465  0.36200667  0.98381816     0.86000
C214        C  0.89867170  0.38397758  0.98458684    -0.54200
C215        C  0.91483865  0.39969421  0.01341507     0.09000
C216        C  0.92859191  0.39188847  0.04002370     0.19900
C217        C  0.92017032  0.36728739  0.96730666    -0.54900
C218        C  0.93650395  0.38281430  0.99675759     0.09100
C219        C  0.89626873  0.35625586  0.04063678    -0.54500
C220        C  0.91213070  0.37199017  0.07051849     0.09600
H221        H  0.88752227  0.38686327  0.96333671     0.14200
H222        H  0.94160709  0.40474279  0.06350800    -0.00100
H223        H  0.92289547  0.35931608  0.93516605     0.14500
H224        H  0.88342602  0.34153938  0.05692046     0.14200
In225      In  0.74544411  0.49041966  0.84249764     1.36900
C226        C  0.72092037  0.50614595  0.87902449     0.77100
O227        O  0.74835969  0.50634578  0.76658723    -0.61300
O228        O  0.73567861  0.47250105  0.76619339    -0.52200
C229        C  0.78805627  0.50799723  0.85687909     0.69800
O230        O  0.77711398  0.51478781  0.87983449    -0.47100
C231        C  0.73150709  0.45514922  0.90151546     0.74500
O232        O  0.74008764  0.51853987  0.86463501    -0.58900
O233        O  0.72322205  0.45464450  0.85885818    -0.49000
O234        O  0.71463827  0.48636325  0.87360587    -0.55400
C235        C  0.74119914  0.48926465  0.74031726     0.84700
O236        O  0.77732121  0.49288877  0.82543925    -0.57300
O237        O  0.74714815  0.47353111  0.91332192    -0.60600
C238        C  0.66962287  0.34281792  0.06122822    -0.02900
In239      In  0.73925653  0.26490379  0.84469286     1.36900
C240        C  0.78084461  0.28135652  0.87067018     0.77100
O241        O  0.74260203  0.25273398  0.76695902    -0.61300
O242        O  0.73414929  0.27704104  0.76991506    -0.52200
C243        C  0.71098516  0.22577440  0.88379424     0.69800
O244        O  0.71770506  0.22784590  0.83858049    -0.47100
C245        C  0.72382606  0.28851452  0.88813529     0.74500
O246        O  0.76608795  0.26263103  0.88258619    -0.58900
O247        O  0.71667183  0.27809967  0.84685855    -0.49000
O248        O  0.77456116  0.29138622  0.84328539    -0.55400
C249        C  0.73812923  0.26496704  0.74235369     0.84700
O250        O  0.71884933  0.24338285  0.90785894    -0.57300
O251        O  0.73941638  0.28748217  0.90631660    -0.60600
In252      In  0.74276113  0.49073140  0.58165191     1.36900
C253        C  0.78510417  0.50697073  0.57473247     0.77100
O254        O  0.74798806  0.50660765  0.65906059    -0.61300
O255        O  0.73306259  0.47242248  0.65671716    -0.52200
C256        C  0.72582966  0.51417160  0.54768959     0.69800
O257        O  0.74369209  0.51693291  0.53266319    -0.47100
C258        C  0.72602311  0.45570130  0.51866658     0.74500
O259        O  0.77276711  0.49027042  0.60005655    -0.58900
O260        O  0.74541520  0.47051478  0.51811445    -0.49000
O261        O  0.77581406  0.51590540  0.55417712    -0.55400
C262        C  0.74041691  0.48931737  0.68402442     0.84700
O263        O  0.71662090  0.49948495  0.58045242    -0.57300
O264        O  0.71497220  0.45853470  0.55201530    -0.60600
C265        C  0.66205570  0.33965824  0.37701721    -0.02900
In266      In  0.73942971  0.26808608  0.58397562     1.36900
C267        C  0.71802758  0.22699478  0.54986618     0.77100
O268        O  0.74400898  0.25509234  0.65829820    -0.61300
O269        O  0.73209762  0.27668877  0.66179334    -0.52200
C270        C  0.78204507  0.29491516  0.57153839     0.69800
O271        O  0.77235611  0.27549163  0.55650751    -0.47100
C272        C  0.72145591  0.28530624  0.52463004     0.74500
O273        O  0.73702936  0.24054473  0.53672980    -0.58900
O274        O  0.71810709  0.28287812  0.57199832    -0.49000
O275        O  0.71003856  0.23423593  0.58190053    -0.55400
C276        C  0.73794817  0.26547270  0.68611428     0.84700
O277        O  0.76999641  0.30046219  0.59359792    -0.57300
O278        O  0.73369133  0.27885889  0.50828691    -0.60600
C279        C  0.10322599  0.63071514  0.97411944     0.86000
C280        C  0.08019006  0.62238606  0.99315218    -0.54200
C281        C  0.06461829  0.60516420  0.96566651     0.09000
C282        C  0.07376629  0.59769389  0.92143217     0.19900
C283        C  0.10572670  0.61069764  0.97382913    -0.54900
C284        C  0.09055165  0.59348090  0.94633440     0.09100
C285        C  0.10254480  0.63524739  0.91715995    -0.54500
C286        C  0.08759411  0.61802899  0.88944981     0.09600
H287        H  0.07657291  0.62969580  0.02524415     0.14200
H288        H  0.06150766  0.58370876  0.89884885    -0.00100
H289        H  0.11888435  0.61040008  0.99295154     0.14500
H290        H  0.11393442  0.64994180  0.89791140     0.14200
C291        C  0.89798330  0.53478090  0.99054528     0.86000
C292        C  0.92072051  0.54884762  0.96798146    -0.54200
C293        C  0.93613646  0.54594329  0.99071224     0.09000
C294        C  0.92731167  0.52891968  0.03322674     0.19900
C295        C  0.89368238  0.51144272  0.98656343    -0.54900
C296        C  0.90894855  0.50822324  0.00880339     0.09100
C297        C  0.90072073  0.53954673  0.04855832    -0.54500
C298        C  0.91597945  0.53640760  0.07077420     0.09600
H299        H  0.92431374  0.56028801  0.93741796     0.14200
H300        H  0.93983503  0.52665818  0.05145393    -0.00100
H301        H  0.87955158  0.49855458  0.96779074     0.14500
H302        H  0.89044247  0.54324867  0.07148061     0.14200
C303        C  0.89935502  0.54112362  0.45513593     0.86000
C304        C  0.89543369  0.51797476  0.44973671    -0.54200
C305        C  0.91123155  0.51651295  0.42433546     0.09000
C306        C  0.92958534  0.53845105  0.40548335     0.19900
C307        C  0.92175006  0.55425604  0.47946736    -0.54900
C308        C  0.93768011  0.55299955  0.45346040     0.09100
C309        C  0.90245753  0.54892801  0.39958935    -0.54500
C310        C  0.91813345  0.54748485  0.37344693     0.09600
H311        H  0.88122471  0.50376515  0.46438408     0.14200
H312        H  0.94234978  0.53721439  0.38452547    -0.00100
H313        H  0.92469527  0.56374707  0.51412373     0.14500
H314        H  0.89186588  0.55326666  0.38072822     0.14200
C315        C  0.10438315  0.63516289  0.50667092     0.86000
C316        C  0.10426639  0.61369612  0.50917637    -0.54200
C317        C  0.08659217  0.59726665  0.53205670     0.09000
C318        C  0.07061335  0.60374767  0.55179265     0.19900
C319        C  0.08272785  0.62914244  0.48146234    -0.54900
C320        C  0.06493779  0.61265996  0.50509111     0.09100
C321        C  0.10173901  0.63994368  0.56301479    -0.54500
C322        C  0.08412502  0.62333857  0.58663736     0.09600
H323        H  0.11701946  0.61157897  0.49313720     0.14200
H324        H  0.05669339  0.59017560  0.57135674    -0.00100
H325        H  0.08173645  0.63722509  0.44776184     0.14500
H326        H  0.11321694  0.65425815  0.58392673     0.14200
C327        C  0.48492687  0.38578026  0.01856317     0.86000
C328        C  0.46358062  0.38438848  0.00274174    -0.54200
C329        C  0.46003962  0.39931775  0.02727984     0.09000
C330        C  0.47801156  0.41418775  0.06459255     0.19900
C331        C  0.50212250  0.40954310  0.00816662    -0.54900
C332        C  0.49870915  0.42436075  0.03292125     0.09100
C333        C  0.48367751  0.38401270  0.07711729    -0.54500
C334        C  0.48023627  0.39896385  0.10144462     0.09600
H335        H  0.45249472  0.37322529  0.97454304     0.14200
H336        H  0.47539916  0.42665228  0.08306208    -0.00100
H337        H  0.51647476  0.41420936  0.98549790     0.14500
H338        H  0.48563129  0.37198174  0.09728843     0.14200
C339        C  0.64667934  0.55241156  0.98645304     0.86000
C340        C  0.62380208  0.53332402  0.97790091    -0.54200
C341        C  0.60821674  0.53415594  0.00581926     0.09000
C342        C  0.61693958  0.55425778  0.04053740     0.19900
C343        C  0.64467732  0.57251109  0.97509589    -0.54900
C344        C  0.62882928  0.57342160  0.00324438     0.09100
C345        C  0.65013355  0.55340395  0.04409380    -0.54500
C346        C  0.63461189  0.55401695  0.07275153     0.09600
H347        H  0.62030925  0.51999894  0.95204790     0.14200
H348        H  0.60405175  0.55442600  0.06345880    -0.00100
H349        H  0.65403355  0.58428376  0.94613394     0.14500
H350        H  0.66374345  0.55316639  0.06084893     0.14200
C351        C  0.36849168  0.46736752  0.96787194     0.86000
C352        C  0.37483965  0.45034043  0.97886001    -0.54200
C353        C  0.39106581  0.45184799  0.94815523     0.09000
C354        C  0.39938261  0.47039006  0.90903223     0.19900
C355        C  0.38977605  0.48932414  0.97096241    -0.54900
C356        C  0.40584790  0.49102461  0.94005000     0.09100
C357        C  0.36322016  0.46485089  0.91065201    -0.54500
C358        C  0.37923437  0.46635948  0.87980110     0.09600
H359        H  0.36707304  0.43817731  0.00817201     0.14200
H360        H  0.41263523  0.47193847  0.88437225    -0.00100
H361        H  0.39172079  0.50331317  0.99184583     0.14500
H362        H  0.34853216  0.46335349  0.89563290     0.14200
C363        C  0.52963999  0.63954829  0.97905935     0.86000
C364        C  0.51154754  0.61578763  0.97490121    -0.54200
C365        C  0.51634011  0.60267259  0.94696139     0.09000
C366        C  0.53979646  0.61429479  0.92803509     0.19900
C367        C  0.54835082  0.63796070  0.00323550    -0.54900
C368        C  0.55372045  0.62464689  0.97623320     0.09100
C369        C  0.53708134  0.64667688  0.92407686    -0.54500
C370        C  0.54242451  0.63364748  0.89746577     0.09600
H371        H  0.49579907  0.60986881  0.99212395     0.14200
H372        H  0.54381925  0.60353721  0.90586302    -0.00100
H373        H  0.55639796  0.64623563  0.03815914     0.14500
H374        H  0.53755826  0.66068297  0.90714458     0.14200
C375        C  0.48563007  0.39097008  0.49399265     0.86000
C376        C  0.50345411  0.41454079  0.50520000    -0.54200
C377        C  0.50309521  0.42956780  0.47448387     0.09000
C378        C  0.48503040  0.41978227  0.43467733     0.19900
C379        C  0.46453635  0.39149532  0.49700719    -0.54900
C380        C  0.46427048  0.40665714  0.46604190     0.09100
C381        C  0.48875740  0.38801752  0.43697590    -0.54500
C382        C  0.48835594  0.40290783  0.40573287     0.09600
H383        H  0.51633598  0.41926773  0.53233569     0.14200
H384        H  0.48489565  0.43225017  0.41024537    -0.00100
H385        H  0.45137661  0.38136475  0.52256383     0.14500
H386        H  0.49088437  0.37497497  0.42257779     0.14200
C387        C  0.64990871  0.55919957  0.45815661     0.86000
C388        C  0.64769711  0.57815139  0.47900010    -0.54200
C389        C  0.63160527  0.58006597  0.45654179     0.09000
C390        C  0.61929195  0.56286254  0.41484142     0.19900
C391        C  0.62720692  0.53925897  0.46400068    -0.54900
C392        C  0.61130054  0.54118870  0.44163366     0.09100
C393        C  0.65253671  0.56276667  0.39990765    -0.54500
C394        C  0.63642496  0.56442501  0.37718566     0.09600
H395        H  0.65736859  0.58849197  0.51024103     0.14200
H396        H  0.60600109  0.56398069  0.39687466    -0.00100
H397        H  0.62403466  0.52452809  0.48302693     0.14500
H398        H  0.66528582  0.56308361  0.37733661     0.14200
C399        C  0.37631308  0.48237709  0.49581236     0.86000
C400        C  0.39696520  0.50403071  0.48408010    -0.54200
C401        C  0.41473013  0.50742899  0.51001806     0.09000
C402        C  0.41045075  0.48869436  0.54512553     0.19900
C403        C  0.38227453  0.46484367  0.48544891    -0.54900
C404        C  0.40007997  0.46808711  0.51172348     0.09100
C405        C  0.37447151  0.48304773  0.55434751    -0.54500
C406        C  0.39213561  0.48597989  0.58014259     0.09600
H407        H  0.39736990  0.51681216  0.46154921     0.14200
H408        H  0.42506823  0.49144248  0.56548777    -0.00100
H409        H  0.37284035  0.45081623  0.46116014     0.14500
H410        H  0.36046564  0.48158298  0.57381441     0.14200
C411        C  0.54606339  0.65867299  0.51877505     0.86000
C412        C  0.56514080  0.65688588  0.49778099    -0.54200
C413        C  0.56592899  0.63939958  0.51549092     0.09000
C414        C  0.54761401  0.62535408  0.55289177     0.19900
C415        C  0.52608528  0.63663914  0.50653649    -0.54900
C416        C  0.52677949  0.61920945  0.52427936     0.09100
C417        C  0.54845212  0.65865412  0.57732725    -0.54500
C418        C  0.54892383  0.64100491  0.59508598     0.09600
H419        H  0.57677225  0.66822993  0.47074725     0.14200
H420        H  0.54811737  0.61112828  0.56741383    -0.00100
H421        H  0.51238868  0.63504988  0.48566731     0.14500
H422        H  0.54894465  0.67080572  0.60306600     0.14200
In423      In  0.26091383  0.52014770  0.37142981     1.36900
C424        C  0.22174212  0.49751235  0.41335945     0.77100
O425        O  0.28195269  0.54580344  0.42916137    -0.61300
O426        O  0.26025182  0.55095774  0.38669098    -0.52200
C427        C  0.28918888  0.50694310  0.38326223     0.69800
O428        O  0.26999844  0.49600155  0.39905895    -0.47100
C429        C  0.25944411  0.51862090  0.26962396     0.74500
O430        O  0.23869941  0.50158936  0.43632397    -0.58900
O431        O  0.26677280  0.53614624  0.29446863    -0.49000
O432        O  0.22474140  0.50387031  0.36789620    -0.55400
C433        C  0.27403466  0.55766537  0.42184527     0.84700
O434        O  0.29365280  0.52439371  0.36170925    -0.57300
O435        O  0.25241900  0.50194924  0.29674431    -0.60600
In436      In  0.26332997  0.51666284  0.11217531     1.36900
C437        C  0.22229915  0.49676554  0.08132085     0.77100
O438        O  0.25561045  0.50071774  0.18926089    -0.61300
O439        O  0.26488633  0.53388412  0.18601471    -0.52200
C440        C  0.28930155  0.50045976  0.09675583     0.69800
O441        O  0.29452159  0.51753148  0.12149376    -0.47100
C442        C  0.28486264  0.55288601  0.05654121     0.74500
O443        O  0.23513788  0.49030223  0.06969092    -0.58900
O444        O  0.28861546  0.55166915  0.10269166    -0.49000
O445        O  0.23034894  0.51335620  0.10977895    -0.55400
C446        C  0.25977198  0.51767913  0.21358289     0.84700
O447        O  0.27021159  0.49095968  0.08052610    -0.57300
O448        O  0.26948326  0.53562384  0.03857124    -0.60600
C449        C  0.35595198  0.47891325  0.46876815    -0.05700
C450        C  0.33544710  0.46526071  0.49028955    -0.05600
C451        C  0.31752921  0.46651905  0.47506937    -0.23800
C452        C  0.31961696  0.48110755  0.43715965     0.18400
C453        C  0.33944877  0.49294973  0.41117864     0.15600
C454        C  0.35719574  0.49125571  0.42599810    -0.18800
C455        C  0.34165896  0.50736885  0.37279042    -0.20600
C456        C  0.32492358  0.51121828  0.36273621    -0.13200
C457        C  0.30550356  0.50045599  0.39016457     0.03500
C458        C  0.30260662  0.48473639  0.42608947    -0.25300
H459        H  0.33352962  0.45459470  0.52133187     0.08500
H460        H  0.30231158  0.45681659  0.49458140     0.12200
H461        H  0.37217259  0.50044875  0.40540340     0.12100
H462        H  0.35668506  0.51642177  0.35210065     0.11800
H463        H  0.32741003  0.52311825  0.33430735     0.12400
H464        H  0.28762754  0.47622066  0.44721599     0.14300
C465        C  0.43401651  0.52934135  0.51438610    -0.05700
C466        C  0.43116900  0.54695462  0.52524416    -0.05600
C467        C  0.44877908  0.56785562  0.52930069    -0.23800
C468        C  0.46964648  0.57160141  0.52245384     0.18400
C469        C  0.47288587  0.55405120  0.51203388     0.15600
C470        C  0.45496061  0.53287111  0.50848474    -0.18800
C471        C  0.49397966  0.55812323  0.50541683    -0.20600
C472        C  0.51158240  0.57930570  0.50940389    -0.13200
C473        C  0.50834669  0.59672927  0.51955697     0.03500
C474        C  0.48729563  0.59268719  0.52609887    -0.25300
H475        H  0.41518457  0.54448945  0.53103240     0.08500
H476        H  0.44605860  0.58111273  0.53769965     0.12200
H477        H  0.45721804  0.51928877  0.50042752     0.12100
H478        H  0.49685781  0.54495996  0.49722575     0.11800
H479        H  0.52770513  0.58211280  0.50393857     0.12400
H480        H  0.48463947  0.60596345  0.53490018     0.14300
C481        C  0.62404598  0.59466019  0.47601490    -0.05700
C482        C  0.62170810  0.59657969  0.52869381    -0.05600
C483        C  0.61117941  0.60714172  0.54724047    -0.23800
C484        C  0.60291463  0.61612072  0.51344413     0.18400
C485        C  0.60639179  0.61552103  0.46052940     0.15600
C486        C  0.61682196  0.60468631  0.44214905    -0.18800
C487        C  0.59857364  0.62498695  0.42684115    -0.20600
C488        C  0.58640625  0.63386206  0.44511998    -0.13200
C489        C  0.58167742  0.63325037  0.49730480     0.03500
C490        C  0.59048567  0.62486941  0.53145399    -0.25300
H491        H  0.62697253  0.58886527  0.55554218     0.08500
H492        H  0.60884939  0.60762512  0.58795311     0.12200
H493        H  0.61875460  0.60350506  0.40149668     0.12100
H494        H  0.60126761  0.62489641  0.38620491     0.11800
H495        H  0.57975227  0.64019915  0.41810908     0.12400
H496        H  0.58718251  0.62464323  0.57187554     0.14300
C497        C  0.44725118  0.41250745  0.46724305    -0.05700
C498        C  0.43880470  0.41505609  0.42156077    -0.05600
C499        C  0.42592826  0.42449703  0.42145489    -0.23800
C500        C  0.42162137  0.43197037  0.46704424     0.18400
C501        C  0.42934696  0.42867032  0.51351071     0.15600
C502        C  0.44181573  0.41865199  0.51338034    -0.18800
C503        C  0.42547707  0.43651674  0.55901402    -0.20600
C504        C  0.41513130  0.44852509  0.55823273    -0.13200
C505        C  0.40818061  0.45270564  0.51209157     0.03500
C506        C  0.41075055  0.44367103  0.46672406    -0.25300
H507        H  0.44254929  0.41016314  0.38576738     0.08500
H508        H  0.42006955  0.42673457  0.38546802     0.12200
H509        H  0.44853982  0.41702306  0.54872034     0.12100
H510        H  0.43113575  0.43404372  0.59502263     0.11800
H511        H  0.41292644  0.45494694  0.59382874     0.12400
H512        H  0.40550939  0.44687762  0.43095946     0.14300
C513        C  0.58889658  0.52300639  0.43947832    -0.05700
C514        C  0.57948392  0.51424328  0.39213492    -0.05600
C515        C  0.55963177  0.49497375  0.38945751    -0.23800
C516        C  0.54885356  0.48435007  0.43419727     0.18400
C517        C  0.55771700  0.49380188  0.48210822     0.15600
C518        C  0.57775576  0.51305251  0.48443102    -0.18800
C519        C  0.54689273  0.48327179  0.52681511    -0.20600
C520        C  0.52830516  0.46285690  0.52417415    -0.13200
C521        C  0.52016149  0.45271610  0.47682865     0.03500
C522        C  0.52999813  0.46393080  0.43188537    -0.25300
H523        H  0.58801713  0.52175217  0.35722549     0.08500
H524        H  0.55306125  0.48801437  0.35244173     0.12200
H525        H  0.58506295  0.51990967  0.52103254     0.12100
H526        H  0.55326466  0.49041908  0.56382899     0.11800
H527        H  0.52068263  0.45461112  0.55924674     0.12400
H528        H  0.52386402  0.45617560  0.39523309     0.14300
C529        C  0.54742568  0.63570769  0.64999553    -0.05700
C530        C  0.53205869  0.61482372  0.66627204    -0.05600
C531        C  0.52898456  0.60985949  0.71807683    -0.23800
C532        C  0.54131261  0.62569070  0.75461679     0.18400
C533        C  0.55729422  0.64662009  0.73862521     0.15600
C534        C  0.56024653  0.65150503  0.68636519    -0.18800
C535        C  0.56949197  0.66249132  0.77529956    -0.20600
C536        C  0.56511847  0.65801385  0.82716092    -0.13200
C537        C  0.54883630  0.63748060  0.84319828     0.03500
C538        C  0.53738592  0.62118042  0.80684557    -0.25300
H539        H  0.52184398  0.60249153  0.63890048     0.08500
H540        H  0.51662947  0.59377756  0.72959028     0.12200
H541        H  0.57219874  0.66762227  0.67400343     0.12100
H542        H  0.58192128  0.67855270  0.76386782     0.11800
H543        H  0.57417863  0.67070888  0.85487693     0.12400
H544        H  0.52468972  0.60537241  0.81916593     0.14300
C545        C  0.34998912  0.46581213  0.00061411    -0.05700
C546        C  0.32838345  0.45092291  0.98766658    -0.05600
C547        C  0.31152851  0.45332529  0.00714496    -0.23800
C548        C  0.31591209  0.47048759  0.04059094     0.18400
C549        C  0.33716720  0.48386274  0.05837787     0.15600
C550        C  0.35380125  0.48092748  0.03983491    -0.18800
C551        C  0.34180794  0.50089496  0.09220393    -0.20600
C552        C  0.32587349  0.50554299  0.10587455    -0.13200
C553        C  0.30487550  0.49314747  0.08653292     0.03500
C554        C  0.29975390  0.47510174  0.05507605    -0.25300
H555        H  0.32464887  0.43829845  0.95967196     0.08500
H556        H  0.29525963  0.44244217  0.99407323     0.12200
H557        H  0.36982809  0.49122874  0.05470117     0.12100
H558        H  0.35800912  0.51123786  0.10641034     0.11800
H559        H  0.33023453  0.51939180  0.13045516     0.12400
H560        H  0.28358553  0.46532811  0.04016993     0.14300
C561        C  0.37811442  0.46694382  0.82359197    -0.05700
C562        C  0.35836148  0.45466434  0.79815062    -0.05600
C563        C  0.35709854  0.45626550  0.74552100    -0.23800
C564        C  0.37558302  0.47014325  0.71746254     0.18400
C565        C  0.39552191  0.48248656  0.74264028     0.15600
C566        C  0.39665545  0.48080601  0.79547001    -0.18800
C567        C  0.41398929  0.49641655  0.71458806    -0.20600
C568        C  0.41277874  0.49790294  0.66189315    -0.13200
C569        C  0.39309971  0.48547728  0.63640136     0.03500
C570        C  0.37449404  0.47173122  0.66460016    -0.25300
H571        H  0.34386194  0.44376067  0.81894933     0.08500
H572        H  0.34168595  0.44666776  0.72679860     0.12200
H573        H  0.41187094  0.49078667  0.81469247     0.12100
H574        H  0.42937426  0.50610531  0.73336539     0.11800
H575        H  0.42726357  0.50889685  0.64120113     0.12400
H576        H  0.35927126  0.46177843  0.64535781     0.14300
C577        C  0.42524089  0.51244307  0.92950138    -0.05700
C578        C  0.42243430  0.53019042  0.92139830    -0.05600
C579        C  0.44004808  0.55104261  0.91759134    -0.23800
C580        C  0.46092557  0.55466238  0.92215544     0.18400
C581        C  0.46427159  0.53698181  0.92735499     0.15600
C582        C  0.44626163  0.51573622  0.93018621    -0.18800
C583        C  0.48550407  0.54115502  0.93215915    -0.20600
C584        C  0.50291026  0.56259646  0.93569740    -0.13200
C585        C  0.49928620  0.58007562  0.93400923     0.03500
C586        C  0.47836420  0.57586573  0.92433794    -0.25300
H587        H  0.40643025  0.52796297  0.91920260     0.08500
H588        H  0.43729019  0.56444907  0.91305824     0.12200
H589        H  0.44854012  0.50208033  0.93587261     0.12100
H590        H  0.48853587  0.52788978  0.93554178     0.11800
H591        H  0.51895325  0.56545831  0.94242110     0.12400
H592        H  0.47545533  0.58923383  0.92104694     0.14300
C593        C  0.63419833  0.56460967  0.32084754    -0.05700
C594        C  0.62622886  0.57680756  0.29824186    -0.05600
C595        C  0.62416535  0.57688882  0.24517783    -0.23800
C596        C  0.62983034  0.56456870  0.21377212     0.18400
C597        C  0.63741095  0.55188532  0.23639643     0.15600
C598        C  0.63951270  0.55196896  0.28949260    -0.18800
C599        C  0.64289708  0.53936245  0.20557451    -0.20600
C600        C  0.64145825  0.53980790  0.15273475    -0.13200
C601        C  0.63452311  0.55279000  0.12937159     0.03500
C602        C  0.62830763  0.56485828  0.16026470    -0.25300
H603        H  0.62192914  0.58658954  0.32153510     0.08500
H604        H  0.61825776  0.58667420  0.22871249     0.12200
H605        H  0.64507566  0.54196338  0.30642572     0.12100
H606        H  0.64850435  0.52936112  0.22230227     0.11800
H607        H  0.64582238  0.52991306  0.13001400     0.12400
H608        H  0.62294400  0.57491107  0.14276436     0.14300
C609        C  0.62059478  0.58850174  0.99256550    -0.05700
C610        C  0.62071598  0.59552303  0.94260969    -0.05600
C611        C  0.60918704  0.60579150  0.93039912    -0.23800
C612        C  0.59711966  0.60915927  0.96773393     0.18400
C613        C  0.59795188  0.60351453  0.01866127     0.15600
C614        C  0.60985158  0.59347483  0.03081739    -0.18800
C615        C  0.58600922  0.60706277  0.05609517    -0.20600
C616        C  0.57249360  0.61501467  0.04278699    -0.13200
C617        C  0.57060190  0.61955893  0.99178306     0.03500
C618        C  0.58350448  0.61715228  0.95465095    -0.25300
H619        H  0.62863578  0.59194817  0.91210880     0.08500
H620        H  0.60893192  0.61021754  0.89117700     0.12200
H621        H  0.60999586  0.58878447  0.06981476     0.12100
H622        H  0.58651475  0.60294447  0.09545561     0.11800
H623        H  0.56271903  0.61660786  0.07206291     0.12400
H624        H  0.58247612  0.62090597  0.91525124     0.14300
C625        C  0.48003405  0.40131507  0.15791843    -0.05700
C626        C  0.46838238  0.41011173  0.18053853    -0.05600
C627        C  0.46837516  0.41285430  0.23317373    -0.23800
C628        C  0.48007437  0.40690104  0.26452501     0.18400
C629        C  0.49208919  0.39827594  0.24256475     0.15600
C630        C  0.49205244  0.39558081  0.18946055    -0.18800
C631        C  0.50383777  0.39240834  0.27419804    -0.20600
C632        C  0.50308305  0.39441518  0.32710521    -0.13200
C633        C  0.49064762  0.40242167  0.34940168     0.03500
C634        C  0.47962907  0.40913426  0.31754931    -0.25300
H635        H  0.45902546  0.41479890  0.15794043     0.08500
H636        H  0.45908218  0.41951299  0.24937605     0.12200
H637        H  0.50162246  0.38932288  0.17288018     0.12100
H638        H  0.51336875  0.38600094  0.25810709     0.11800
H639        H  0.51224307  0.38964813  0.35053321     0.12400
H640        H  0.47010872  0.41543644  0.33376567     0.14300
C641        C  0.44158625  0.40254361  0.01797383    -0.05700
C642        C  0.43063927  0.40474428  0.05988909    -0.05600
C643        C  0.41700771  0.41307716  0.05403443    -0.23800
C644        C  0.41403236  0.41935555  0.00589589     0.18400
C645        C  0.42371521  0.41574700  0.96275228     0.16400
C646        C  0.43733914  0.40716309  0.96897960    -0.18800
C647        C  0.42055292  0.42194007  0.91461876    -0.20600
C648        C  0.40906473  0.43275546  0.90972429    -0.13200
C649        C  0.40049991  0.43761520  0.95279506     0.03500
C650        C  0.40242651  0.43012965  0.00064553    -0.25300
H651        H  0.43323301  0.40068804  0.09763873     0.08500
H652        H  0.40947439  0.41539699  0.08745739     0.12200
H653        H  0.44582794  0.40562030  0.93645021     0.12100
H654        H  0.42753413  0.41903984  0.88094601     0.11800
H655        H  0.40722699  0.43765030  0.87213154     0.12400
H656        H  0.39600239  0.43375850  0.03429441     0.14300
C657        C  0.51515082  0.44771042  0.03464455    -0.05700
C658        C  0.52128538  0.45880954  0.08155336    -0.05600
C659        C  0.53962827  0.47947992  0.08488053    -0.23800
C660        C  0.55205289  0.48929862  0.04127447     0.18400
C661        C  0.54486908  0.47887619  0.99338756     0.15600
C662        C  0.52644849  0.45823350  0.99038266    -0.18800
C663        C  0.55698925  0.48861323  0.94960417    -0.20600
C664        C  0.57699262  0.50748377  0.95364767    -0.13200
C665        C  0.58523069  0.51700413  0.00147292     0.03500
C666        C  0.57218697  0.50852523  0.04498543    -0.25300
H667        H  0.51271867  0.45096113  0.11616652     0.08500
H668        H  0.54468021  0.48727739  0.12184780     0.12200
H669        H  0.52154169  0.44985120  0.95398621     0.12100
H670        H  0.55150537  0.48106844  0.91251565     0.11800
H671        H  0.58648253  0.51417436  0.91940415     0.12400
H672        H  0.57834886  0.51584790  0.08198253     0.14300
C673        C  0.96047748  0.56393245  0.47087415    -0.05700
C674        C  0.96517859  0.56461870  0.52293115    -0.05600
C675        C  0.98647909  0.57436766  0.53965381    -0.23800
C676        C  0.00356211  0.58383421  0.50469413     0.18400
C677        C  0.99913036  0.58338089  0.45225736     0.15600
C678        C  0.97759960  0.57329695  0.43560173    -0.18800
C679        C  0.01633716  0.59305079  0.41755965    -0.20600
C680        C  0.03767982  0.60289838  0.43460790    -0.13200
C681        C  0.04229014  0.60327825  0.48673384     0.03500
C682        C  0.02498449  0.59374316  0.52145518    -0.25300
H683        H  0.95231791  0.55724194  0.55074036     0.08500
H684        H  0.98958952  0.57448039  0.58001382     0.12200
H685        H  0.97418604  0.57301125  0.39537074     0.12100
H686        H  0.01329173  0.59286918  0.37714919     0.11800
H687        H  0.05053571  0.60976486  0.40673846     0.12400
H688        H  0.02804719  0.59416995  0.56180602     0.14300
C689        C  0.92063457  0.55053964  0.31745951    -0.05700
C690        C  0.91811155  0.56666033  0.29399985    -0.05600
C691        C  0.91764507  0.56776115  0.24094500    -0.23800
C692        C  0.91953787  0.55265318  0.21038991     0.18400
C693        C  0.92266608  0.53675185  0.23360793     0.15600
C694        C  0.92334587  0.53589561  0.28690412    -0.18800
C695        C  0.92437480  0.52152129  0.20317279    -0.20600
C696        C  0.92263176  0.52177786  0.15029069    -0.13200
C697        C  0.91917298  0.53727295  0.12678022     0.03500
C698        C  0.91784863  0.55283980  0.15714225    -0.25300
H699        H  0.91612453  0.57820835  0.31679976     0.08500
H700        H  0.91532797  0.58012396  0.22386482     0.12200
H701        H  0.92488426  0.52313768  0.30449043     0.12100
H702        H  0.92665307  0.50914603  0.22032281     0.11800
H703        H  0.92330760  0.50935507  0.12794573     0.12400
H704        H  0.91532980  0.56495808  0.13938179     0.14300
C705        C  0.08933337  0.61815964  0.83318412    -0.05700
C706        C  0.10983052  0.62629011  0.81112016    -0.05600
C707        C  0.11278851  0.62937581  0.75885350    -0.23800
C708        C  0.09525200  0.62416895  0.72737779     0.18400
C709        C  0.07432835  0.61497931  0.74858881     0.15600
C710        C  0.07144282  0.61188687  0.80164869    -0.18800
C711        C  0.05682326  0.60935787  0.71625910    -0.20600
C712        C  0.06005728  0.61272141  0.66367611    -0.13200
C713        C  0.08084160  0.62204090  0.64263121     0.03500
C714        C  0.09837357  0.62782947  0.67490428    -0.25300
H715        H  0.12375789  0.63072216  0.83470662     0.08500
H716        H  0.12885765  0.63608995  0.74313644     0.12200
H717        H  0.05558866  0.60544662  0.81845575     0.12100
H718        H  0.04064914  0.60223400  0.73154439     0.11800
H719        H  0.04629117  0.60799390  0.63942975     0.12400
H720        H  0.11439506  0.63443585  0.65891746     0.14300
C721        C  0.04122089  0.59470838  0.97807558    -0.05700
C722        C  0.03443367  0.59241516  0.02916077    -0.05600
C723        C  0.01260244  0.58280411  0.04147730    -0.23800
C724        C  0.99704316  0.57539245  0.00296056     0.18400
C725        C  0.00357232  0.57780928  0.95137564     0.15600
C726        C  0.02561606  0.58725788  0.93924967    -0.18800
C727        C  0.98789933  0.57072811  0.91297045    -0.20600
C728        C  0.96600190  0.56101602  0.92558409    -0.13200
C729        C  0.95937406  0.55797821  0.97678128     0.03500
C730        C  0.97505595  0.56543096  0.01526404    -0.25300
H731        H  0.04603425  0.59777907  0.05981701     0.08500
H732        H  0.00788362  0.58110595  0.08122160     0.12200
H733        H  0.03063047  0.58917433  0.89970646     0.12100
H734        H  0.99255841  0.57251994  0.87318381     0.11800
H735        H  0.95418985  0.55527235  0.89533746     0.12400
H736        H  0.97012672  0.56345527  0.05490759     0.14300
C737        C  0.67593110  0.33308212  0.40979451    -0.05700
C738        C  0.67650027  0.33628191  0.46345865    -0.05600
C739        C  0.68550208  0.32784722  0.49626145    -0.23800
C740        C  0.69461267  0.31608561  0.47692683     0.18400
C741        C  0.69560263  0.31381148  0.42355145     0.15600
C742        C  0.68675534  0.32268382  0.39034549    -0.18800
C743        C  0.70504889  0.30224420  0.40430048    -0.20600
C744        C  0.71325848  0.29298953  0.43735298    -0.13200
C745        C  0.71216087  0.29494163  0.49052459     0.03500
C746        C  0.70271886  0.30654100  0.51008670    -0.25300
H747        H  0.66864241  0.34427205  0.48058084     0.08500
H748        H  0.68478389  0.33005098  0.53699040     0.12200
H749        H  0.68788019  0.32076147  0.34981659     0.12100
H750        H  0.70599460  0.30023077  0.36358003     0.11800
H751        H  0.72042909  0.28415609  0.42116669     0.12400
H752        H  0.70187866  0.30832675  0.55096713     0.14300
C753        C  0.80823680  0.51450492  0.56747291    -0.05700
C754        C  0.81700220  0.50277404  0.58882261    -0.05600
C755        C  0.83784659  0.50762894  0.57625100    -0.23800
C756        C  0.85024713  0.52418209  0.54165799     0.18400
C757        C  0.84206783  0.53686143  0.52216525     0.15600
C758        C  0.82118203  0.53209591  0.53555295    -0.18800
C759        C  0.85459232  0.55348850  0.48791521    -0.20600
C760        C  0.87403051  0.55614869  0.46939429    -0.13200
C761        C  0.88130746  0.54209901  0.48432112     0.03500
C762        C  0.87009733  0.52738315  0.52396559    -0.25300
H763        H  0.80742851  0.48925480  0.61380528     0.08500
H764        H  0.84389342  0.49780978  0.59185859     0.12200
H765        H  0.81464583  0.54134519  0.51908994     0.12100
H766        H  0.84894098  0.56387094  0.47377946     0.11800
H767        H  0.88295689  0.56886585  0.44213571     0.12400
H768        H  0.87604290  0.51734986  0.53873807     0.14300
C769        C  0.71630580  0.52672204  0.52753934    -0.05700
C770        C  0.72265088  0.53651093  0.47953775    -0.05600
C771        C  0.71250232  0.54676869  0.45798852    -0.23800
C772        C  0.69593610  0.54765254  0.48427399     0.18400
C773        C  0.69030835  0.53902463  0.53382409     0.15600
C774        C  0.70037064  0.52842603  0.55500653    -0.18800
C775        C  0.67430570  0.54065514  0.56066834    -0.20600
C776        C  0.66279226  0.54908328  0.53715171    -0.13200
C777        C  0.66659652  0.55563706  0.48581321     0.03500
C778        C  0.68430422  0.55612847  0.46087566    -0.25300
H779        H  0.73497321  0.53555557  0.45780590     0.08500
H780        H  0.71722637  0.55349729  0.42012849     0.12200
H781        H  0.69559140  0.52123540  0.59244159     0.12100
H782        H  0.67010545  0.53464608  0.59923079     0.11800
H783        H  0.64979354  0.54909958  0.55806441     0.12400
H784        H  0.68882494  0.56222557  0.42268989     0.14300
C785        C  0.71723389  0.43670929  0.48334731    -0.05700
C786        C  0.73109419  0.43245011  0.45383884    -0.05600
C787        C  0.72288311  0.41392001  0.42255664    -0.23800
C788        C  0.70061045  0.39922484  0.42015580     0.18400
C789        C  0.68663542  0.40385159  0.44823970     0.15600
C790        C  0.69494109  0.42249580  0.47935101    -0.18800
C791        C  0.66455181  0.38922669  0.44690471    -0.20600
C792        C  0.65636958  0.36941850  0.42153991    -0.13200
C793        C  0.66987508  0.36363062  0.39441333     0.03500
C794        C  0.69216086  0.37950403  0.39254346    -0.25300
H795        H  0.74836708  0.44321870  0.45582433     0.08500
H796        H  0.73398875  0.41080607  0.40134002     0.12200
H797        H  0.68405251  0.42565589  0.50143859     0.12100
H798        H  0.65358687  0.39250589  0.46828909     0.11800
H799        H  0.63949500  0.35842719  0.42750794     0.12400
H800        H  0.70311587  0.37567847  0.37295171     0.14300
C801        C  0.68302661  0.33313388  0.03784275    -0.05700
C802        C  0.69658380  0.32828912  0.06635270    -0.05600
C803        C  0.70804780  0.31943381  0.04276314    -0.23800
C804        C  0.70639236  0.31520400  0.99001616     0.18400
C805        C  0.69353902  0.32060299  0.96068074     0.15600
C806        C  0.68263550  0.32996155  0.98422891    -0.18800
C807        C  0.69132936  0.31613423  0.90818756    -0.20600
C808        C  0.70138929  0.30594545  0.88497412    -0.13200
C809        C  0.71428914  0.30041566  0.91338623     0.03500
C810        C  0.71702409  0.30542120  0.96604756    -0.25300
H811        H  0.69859604  0.33135911  0.10686550     0.08500
H812        H  0.71807068  0.31568715  0.06597878     0.12200
H813        H  0.67291957  0.33400616  0.96069648     0.12100
H814        H  0.68143844  0.32013687  0.88517197     0.11800
H815        H  0.69901993  0.30231979  0.84457535     0.12400
H816        H  0.72679550  0.30108404  0.98853160     0.14300
C817        C  0.67217836  0.34658666  0.12088126    -0.05700
C818        C  0.67902647  0.36712253  0.14357255    -0.05600
C819        C  0.67928556  0.36991892  0.19667651    -0.23800
C820        C  0.67220767  0.35236607  0.22982432     0.18400
C821        C  0.66489756  0.33161510  0.20880223     0.15600
C822        C  0.66494619  0.32884461  0.15495267    -0.18800
C823        C  0.65712854  0.31397019  0.24212037    -0.20600
C824        C  0.65658596  0.31683291  0.29519501    -0.13200
C825        C  0.66421420  0.33752271  0.31764318     0.03500
C826        C  0.67178801  0.35521354  0.28342792    -0.25300
H827        H  0.68346998  0.38118722  0.12097081     0.08500
H828        H  0.68461954  0.38601407  0.21186733     0.12200
H829        H  0.65882659  0.31269997  0.13926855     0.12100
H830        H  0.65113711  0.29775727  0.22706562     0.11800
H831        H  0.65000910  0.30266204  0.31913579     0.12400
H832        H  0.67696219  0.37132883  0.29777622     0.14300
C833        C  0.81115115  0.51596334  0.86786050    -0.05700
C834        C  0.82242722  0.50822730  0.83905521    -0.05600
C835        C  0.84298295  0.51282071  0.85372672    -0.23800
C836        C  0.85258512  0.52498813  0.89801753     0.18400
C837        C  0.84196622  0.53388413  0.92559785     0.15600
C838        C  0.82146157  0.52957325  0.91003972    -0.18800
C839        C  0.85162183  0.54613074  0.96962290    -0.20600
C840        C  0.87053131  0.54790261  0.98873098    -0.13200
C841        C  0.88027104  0.53731871  0.96453244     0.03500
C842        C  0.87193259  0.52729487  0.91682228    -0.25300
H843        H  0.81500976  0.49792127  0.80608962     0.08500
H844        H  0.85093140  0.50601393  0.83169886     0.12200
H845        H  0.81304405  0.53576349  0.93248264     0.12100
H846        H  0.84411382  0.55370040  0.99045873     0.11800
H847        H  0.87713214  0.55738921  0.02301141     0.12400
H848        H  0.87962182  0.51986028  0.89617311     0.14300
C849        C  0.70676745  0.51338693  0.90247967    -0.05700
C850        C  0.69125005  0.49954897  0.93776644    -0.05600
C851        C  0.67707254  0.50494000  0.96047190    -0.23800
C852        C  0.67777598  0.52420084  0.94784682     0.18400
C853        C  0.69305650  0.53839532  0.91217739     0.15600
C854        C  0.70779743  0.53304511  0.88997282    -0.18800
C855        C  0.69305561  0.55746905  0.89954429    -0.20600
C856        C  0.67823403  0.56240675  0.92233346    -0.13200
C857        C  0.66317264  0.54839412  0.95851450     0.03500
C858        C  0.66326924  0.52931127  0.97060049    -0.25300
H859        H  0.69016270  0.48444041  0.94822546     0.08500
H860        H  0.66540349  0.49390192  0.98777523     0.12200
H861        H  0.71958678  0.54377800  0.86246837     0.12100
H862        H  0.70452223  0.56858191  0.87204754     0.11800
H863        H  0.67880599  0.57720913  0.91175951     0.12400
H864        H  0.65180812  0.51826046  0.99828910     0.14300
C865        C  0.72334633  0.43599596  0.93543320    -0.05700
C866        C  0.73654313  0.43510820  0.97341583    -0.05600
C867        C  0.72879571  0.41709616  0.00559123    -0.23800
C868        C  0.70747247  0.39981016  0.00137520     0.18400
C869        C  0.69400597  0.40088777  0.96421448     0.15600
C870        C  0.70204565  0.41869210  0.93104529    -0.18800
C871        C  0.67268541  0.38405184  0.96037223    -0.20600
C872        C  0.66467809  0.36623110  0.99255542    -0.13200
C873        C  0.67763874  0.36436445  0.03042954     0.03500
C874        C  0.69943339  0.38145333  0.03322269    -0.25300
H875        H  0.75298982  0.44827144  0.97783170     0.08500
H876        H  0.73944914  0.41676247  0.03396720     0.12200
H877        H  0.69160454  0.41926537  0.90243345     0.12100
H878        H  0.66217864  0.38445227  0.93170136     0.11800
H879        H  0.64842044  0.35345997  0.98480133     0.12400
H880        H  0.71015349  0.38030959  0.06005304     0.14300
C881        C  0.91788598  0.42178169  0.01879043    -0.05700
C882        C  0.93851828  0.44029512  0.02223028    -0.05600
C883        C  0.94107503  0.46106547  0.02234528    -0.23800
C884        C  0.92302277  0.46360770  0.01897379     0.18400
C885        C  0.90226019  0.44500781  0.01744092     0.15600
C886        C  0.89984340  0.42438001  0.01791314    -0.18800
C887        C  0.88412127  0.44722041  0.01458928    -0.20600
C888        C  0.88642595  0.46768372  0.01230388    -0.13200
C889        C  0.90694889  0.48648899  0.01226359     0.03500
C890        C  0.92526940  0.48428810  0.01628000    -0.25300
H891        H  0.95269808  0.43876353  0.02298567     0.08500
H892        H  0.95715789  0.47510819  0.02396827     0.12200
H893        H  0.88378101  0.41028031  0.01699568     0.12100
H894        H  0.86808138  0.43307573  0.01390591     0.11800
H895        H  0.87194985  0.46865090  0.01113697     0.12400
H896        H  0.94124436  0.49848761  0.01598999     0.14300
C897        C  0.87917489  0.34566682  0.94924548    -0.05700
C898        C  0.87666265  0.35235222  0.90068442    -0.05600
C899        C  0.85741839  0.34048834  0.87346881    -0.23800
C900        C  0.84048579  0.32116766  0.89320122     0.18400
C901        C  0.84376994  0.31286060  0.93859776     0.15600
C902        C  0.86308106  0.32495616  0.96592706    -0.18800
C903        C  0.82724475  0.29303324  0.95730973    -0.20600
C904        C  0.80720922  0.28224674  0.93319212    -0.13200
C905        C  0.80318262  0.29114700  0.89018403     0.03500
C906        C  0.82014873  0.31036125  0.86940864    -0.25300
H907        H  0.88905205  0.36768804  0.88544227     0.08500
H908        H  0.85550566  0.34685814  0.83790293     0.12200
H909        H  0.86495318  0.31821958  0.00072626     0.12100
H910        H  0.82954296  0.28623838  0.99172728     0.11800
H911        H  0.79449341  0.26743244  0.94978164     0.12400
H912        H  0.81733222  0.31724293  0.83582731     0.14300
C913        C  0.19997131  0.48609189  0.06145883    -0.05700
C914        C  0.19457026  0.47270356  0.01809061    -0.05600
C915        C  0.17418363  0.46369716  0.99616290    -0.23800
C916        C  0.15863840  0.46771113  0.01742069     0.18400
C917        C  0.16345970  0.48032085  0.06235615     0.15600
C918        C  0.18418913  0.48961947  0.08396983    -0.18800
C919        C  0.14754004  0.48364091  0.08420169    -0.20600
C920        C  0.12766185  0.47582297  0.05987724    -0.13200
C921        C  0.12335286  0.46495737  0.01246275     0.03500
C922        C  0.13865223  0.45988611  0.99331550    -0.25300
H923        H  0.20638040  0.46969399  0.00010609     0.08500
H924        H  0.17073746  0.45394982  0.96186499     0.12200
H925        H  0.18809352  0.49972177  0.11779166     0.12100
H926        H  0.15067658  0.49283685  0.11931006     0.11800
H927        H  0.11604357  0.47940967  0.07667391     0.12400
H928        H  0.13559020  0.45028500  0.95917177     0.14300
C929        C  0.08242891  0.49884546  0.94342181    -0.05700
C930        C  0.06165473  0.49594324  0.94656769    -0.05600
C931        C  0.05867305  0.51375772  0.94390230    -0.23800
C932        C  0.07645088  0.53473604  0.93818862     0.18400
C933        C  0.09725665  0.53754574  0.93268263     0.15600
C934        C  0.10006342  0.51964183  0.93493003    -0.18800
C935        C  0.11510917  0.55832714  0.92683771    -0.20600
C936        C  0.11260354  0.57632033  0.92932516    -0.13200
C937        C  0.09220587  0.57391797  0.93747786     0.03500
C938        C  0.07400054  0.55301598  0.93995824    -0.25300
H939        H  0.04780325  0.48002739  0.95311086     0.08500
H940        H  0.04258188  0.51120621  0.94788932     0.12200
H941        H  0.11608674  0.52197201  0.93115594     0.12100
H942        H  0.13110870  0.56072100  0.92188550     0.11800
H943        H  0.12677800  0.59225971  0.92577779     0.12400
H944        H  0.05821579  0.55105131  0.94595077     0.14300
C945        C  0.95968552  0.39098196  0.98614341    -0.05700
C946        C  0.96693251  0.39296660  0.93555955    -0.05600
C947        C  0.98876076  0.40180674  0.92471449    -0.23800
C948        C  0.00385431  0.40905067  0.96420582     0.18400
C949        C  0.99688297  0.40677177  0.01535196     0.15600
C950        C  0.97477645  0.39762202  0.02605091    -0.18800
C951        C  0.01225435  0.41429717  0.05457462    -0.20600
C952        C  0.03433088  0.42511522  0.04297061    -0.13200
C953        C  0.04132451  0.42830421  0.99198689     0.03500
C954        C  0.02587695  0.41932567  0.95304572    -0.25300
H955        H  0.95578679  0.38830676  0.90408293     0.08500
H956        H  0.99390249  0.40354511  0.88528449     0.12200
H957        H  0.96939369  0.39591296  0.06524810     0.12100
H958        H  0.00724164  0.41255753  0.09409903     0.11800
H959        H  0.04588062  0.43183071  0.07372843     0.12400
H960        H  0.03097819  0.42092519  0.91360989     0.14300
C961        C  0.20035485  0.48726348  0.43844090    -0.05700
C962        C  0.19848428  0.48306085  0.49095118    -0.05600
C963        C  0.17883152  0.47571556  0.51611711    -0.23800
C964        C  0.16063765  0.47242238  0.48925116     0.18400
C965        C  0.16218362  0.47597079  0.43618361     0.15600
C966        C  0.18198394  0.48330876  0.41108662    -0.18800
C967        C  0.14414211  0.47302354  0.40948748    -0.20600
C968        C  0.12503552  0.46750285  0.43535099    -0.13200
C969        C  0.12325798  0.46445745  0.48856087     0.03500
C970        C  0.14128372  0.46667877  0.51503248    -0.25300
H971        H  0.21240106  0.48606859  0.51293463     0.08500
H972        H  0.17800677  0.47312185  0.55685547     0.12200
H973        H  0.18324552  0.48661186  0.37060991     0.12100
H974        H  0.14504635  0.47582242  0.36882501     0.11800
H975        H  0.11189992  0.46676292  0.41393835     0.12400
H976        H  0.14105647  0.46546177  0.55599033     0.14300
C977        C  0.08025922  0.45787429  0.65211285    -0.05700
C978        C  0.07195504  0.46970779  0.67645524    -0.05600
C979        C  0.06946344  0.46924217  0.72928740    -0.23800
C980        C  0.07565165  0.45732366  0.75931339     0.18400
C981        C  0.08344343  0.44485271  0.73562844     0.15600
C982        C  0.08543572  0.44497201  0.68224598    -0.18800
C983        C  0.08985458  0.43312387  0.76591800    -0.20600
C984        C  0.08957130  0.43463304  0.81906666    -0.13200
C985        C  0.08273746  0.44778008  0.84298327     0.03500
C986        C  0.07515969  0.45855368  0.81266703    -0.25300
H987        H  0.06821702  0.48021885  0.65530121     0.08500
H988        H  0.06346257  0.47891772  0.74682294     0.12200
H989        H  0.09144875  0.43536323  0.66451626     0.12100
H990        H  0.09570837  0.42330238  0.74852596     0.11800
H991        H  0.09510213  0.42581588  0.84146640     0.12400
H992        H  0.07013304  0.46902050  0.83025013     0.14300
C993        C  0.09346381  0.51048010  0.54306453    -0.05700
C994        C  0.11352329  0.52883526  0.55439131    -0.05600
C995        C  0.11587752  0.54932599  0.55662584    -0.23800
C996        C  0.09820242  0.55184942  0.54749954     0.18400
C997        C  0.07776807  0.53346902  0.53746116     0.15600
C998        C  0.07548185  0.51280195  0.53565651    -0.18800
C999        C  0.06015198  0.53620488  0.52833498    -0.20600
C1000       C  0.06289512  0.55697043  0.52799445    -0.13200
C1001       C  0.08327883  0.57525299  0.53659054     0.03500
C1002       C  0.10078316  0.57253834  0.54724559    -0.25300
H1003       H  0.12749825  0.52734209  0.56136408     0.08500
H1004       H  0.13159348  0.56322835  0.56475436     0.12200
H1005       H  0.05998777  0.49871218  0.52675052     0.12100
H1006       H  0.04437178  0.52234665  0.52055642     0.11800
H1007       H  0.04923126  0.55877894  0.51934193     0.12400
H1008       H  0.11649421  0.58657729  0.55478631     0.14300
C1009       C  0.87994160  0.35247247  0.48231246    -0.05700
C1010       C  0.87088065  0.33070768  0.46614481    -0.05600
C1011       C  0.85048126  0.31470286  0.48289616    -0.23800
C1012       C  0.83876149  0.31989591  0.51714904     0.18400
C1013       C  0.84845672  0.34106428  0.53775205     0.15600
C1014       C  0.86912496  0.35700833  0.52125837    -0.18800
C1015       C  0.83688705  0.34621489  0.57271105    -0.20600
C1016       C  0.81551524  0.33095291  0.58477596    -0.13200
C1017       C  0.80535779  0.31013786  0.56272196     0.03500
C1018       C  0.81734673  0.30449684  0.53005082    -0.25300
H1019       H  0.87925068  0.32596419  0.43943726     0.08500
H1020       H  0.84362190  0.29838643  0.46785533     0.12200
H1021       H  0.87626355  0.37320284  0.53711701     0.12100
H1022       H  0.84410179  0.36229639  0.58934565     0.11800
H1023       H  0.80674722  0.33562547  0.61053404     0.12400
H1024       H  0.80976693  0.28845127  0.51304864     0.14300
C1025       C  0.91099182  0.37123938  0.12737835    -0.05700
C1026       C  0.89071877  0.36000548  0.15140996    -0.05600
C1027       C  0.88887784  0.35960139  0.20412120    -0.23800
C1028       C  0.90720222  0.37075600  0.23443644     0.18400
C1029       C  0.92775252  0.38232495  0.21157748     0.15600
C1030       C  0.92957154  0.38245309  0.15797946    -0.18800
C1031       C  0.94593171  0.39373842  0.24292234    -0.20600
C1032       C  0.94363537  0.39367602  0.29613974    -0.13200
C1033       C  0.92315063  0.38210265  0.31894680     0.03500
C1034       C  0.90505130  0.37080136  0.28735631    -0.25300
H1035       H  0.87596905  0.35194475  0.12967341     0.08500
H1036       H  0.87298781  0.35084081  0.22118340     0.12200
H1037       H  0.94532972  0.39123035  0.14041221     0.12100
H1038       H  0.96188059  0.40279828  0.22632088     0.11800
H1039       H  0.95790064  0.40257542  0.31929254     0.12400
H1040       H  0.88901413  0.36249431  0.30360791     0.14300
C1041       C  0.96159237  0.40310059  0.47640903    -0.05700
C1042       C  0.96601293  0.40692058  0.52875610    -0.05600
C1043       C  0.98721771  0.41694926  0.54658691    -0.23800
C1044       C  0.00441923  0.42319192  0.51242924     0.18400
C1045       C  0.00013488  0.41915590  0.45978503     0.15600
C1046       C  0.97879812  0.40926829  0.44212625    -0.18800
C1047       C  0.01728844  0.42518267  0.42567089    -0.20600
C1048       C  0.03850197  0.43532627  0.44339285    -0.13200
C1049       C  0.04305898  0.43974205  0.49560287     0.03500
C1050       C  0.02580925  0.43346658  0.52996356    -0.25300
H1051       H  0.95308212  0.40260936  0.55584532     0.08500
H1052       H  0.99017016  0.41994400  0.58708856     0.12200
H1053       H  0.97557797  0.40622504  0.40174346     0.12100
H1054       H  0.01431843  0.42222081  0.38516526     0.11800
H1055       H  0.05140030  0.44019852  0.41593996     0.12400
H1056       H  0.02895663  0.43637698  0.57041972     0.14300
C1057       C  0.90998225  0.49542290  0.41540628    -0.05700
C1058       C  0.89002847  0.47697163  0.40390901    -0.05600
C1059       C  0.88786103  0.45652688  0.40148569    -0.23800
C1060       C  0.90560891  0.45410121  0.41071138     0.18400
C1061       C  0.92602317  0.47260781  0.42004266     0.15600
C1062       C  0.92814220  0.49325346  0.42185214    -0.18800
C1063       C  0.94372702  0.46998428  0.42911056    -0.20600
C1064       C  0.94105402  0.44922372  0.43056877    -0.13200
C1065       C  0.92065349  0.43076290  0.42311795     0.03500
C1066       C  0.90308521  0.43338882  0.41215038    -0.25300
H1067       H  0.87592919  0.47832031  0.39762493     0.08500
H1068       H  0.87216431  0.44254402  0.39368543     0.12200
H1069       H  0.94358872  0.50739932  0.43078359     0.12100
H1070       H  0.95951642  0.48393323  0.43624173     0.11800
H1071       H  0.95481008  0.44758318  0.43930735     0.12400
H1072       H  0.88735594  0.41927217  0.40537718     0.14300
C1073       C  0.64804206  0.12794088  0.47912766    -0.05700
C1074       C  0.64503141  0.13095776  0.53105870    -0.05600
C1075       C  0.65848826  0.15059245  0.55600219    -0.23800
C1076       C  0.67587991  0.16750717  0.53026193     0.18400
C1077       C  0.68056592  0.16401537  0.47989370     0.15600
C1078       C  0.66667555  0.14432696  0.45460278    -0.18800
C1079       C  0.69868479  0.18060283  0.45509609    -0.20600
C1080       C  0.71135253  0.20073342  0.47899732    -0.13200
C1081       C  0.70594478  0.20483822  0.52773044     0.03500
C1082       C  0.68838153  0.18796799  0.55361517    -0.25300
H1083       H  0.63131255  0.11847038  0.55159985     0.08500
H1084       H  0.65493138  0.15272569  0.59507485     0.12200
H1085       H  0.67034708  0.14228350  0.41574358     0.12100
H1086       H  0.70277944  0.17819017  0.41675147     0.11800
H1087       H  0.72490539  0.21342508  0.45844051     0.12400
H1088       H  0.68429876  0.19084955  0.59157311     0.14300
C1089       C  0.60297012  0.04593155  0.45695284    -0.05700
C1090       C  0.59892382  0.03181260  0.41559292    -0.05600
C1091       C  0.58887079  0.00950543  0.42305226    -0.23800
C1092       C  0.58217919  0.00093810  0.47192145     0.18400
C1093       C  0.58691932  0.01513009  0.51409264     0.15600
C1094       C  0.59769232  0.03761888  0.50642606    -0.18800
C1095       C  0.57958474  0.00652041  0.56268390    -0.20600
C1096       C  0.56660215  0.98416134  0.56895080    -0.13200
C1097       C  0.56108506  0.97002070  0.52697134     0.03500
C1098       C  0.56962352  0.97845419  0.47881406    -0.25300
H1099       H  0.60290976  0.03804885  0.37718522     0.08500
H1100       H  0.58540113  0.99890954  0.39031327     0.12200
H1101       H  0.60049227  0.04849367  0.53827267     0.12100
H1102       H  0.58308347  0.01710468  0.59545768     0.11800
H1103       H  0.56032911  0.97792052  0.60649165     0.12400
H1104       H  0.56517160  0.96765960  0.44613141     0.14300
C1105       C  0.52637620  0.91717345  0.84714576    -0.05700
C1106       C  0.53909600  0.90980565  0.82334887    -0.05600
C1107       C  0.54111970  0.90998875  0.77043516    -0.23800
C1108       C  0.53079555  0.91790496  0.74012614     0.18400
C1109       C  0.51899276  0.92648064  0.76346291     0.15600
C1110       C  0.51671717  0.92592118  0.81667577    -0.18800
C1111       C  0.50943685  0.93522798  0.73306875    -0.20600
C1112       C  0.51094419  0.93479869  0.68001435    -0.13200
C1113       C  0.52146424  0.92504168  0.65629690     0.03500
C1114       C  0.53185885  0.91712688  0.68686376    -0.25300
H1115       H  0.54752716  0.90379581  0.84549799     0.08500
H1116       H  0.55062775  0.90376964  0.75322318     0.12200
H1117       H  0.50686593  0.93169757  0.83376049     0.12100
H1118       H  0.50066600  0.94227504  0.75028587     0.11800
H1119       H  0.50349117  0.94174039  0.65796266     0.12400
H1120       H  0.54082618  0.91037210  0.66927114     0.14300
C1121       C  0.64058121  0.12708436  0.95712727    -0.05700
C1122       C  0.64815573  0.12602451  0.90813732    -0.05600
C1123       C  0.66364594  0.14500036  0.88345677    -0.23800
C1124       C  0.67192822  0.16538177  0.90723102     0.18400
C1125       C  0.66467064  0.16645069  0.95667035     0.15600
C1126       C  0.64920865  0.14753614  0.98086114    -0.18800
C1127       C  0.67274448  0.18648001  0.98128403    -0.20600
C1128       C  0.68781450  0.20543707  0.95716282    -0.13200
C1129       C  0.69515083  0.20491770  0.90770871     0.03500
C1130       C  0.68714776  0.18472422  0.88272223    -0.25300
H1131       H  0.64193413  0.11078759  0.88808779     0.08500
H1132       H  0.66897888  0.14374705  0.84555492     0.12200
H1133       H  0.64346638  0.14873822  0.01837276     0.12100
H1134       H  0.66733046  0.18751777  0.01927476     0.11800
H1135       H  0.69363505  0.22065365  0.97735908     0.12400
H1136       H  0.69269237  0.18407736  0.84462337     0.14300
C1137       C  0.60981000  0.08668069  0.31538149    -0.05700
C1138       C  0.58945220  0.08135646  0.29681601    -0.05600
C1139       C  0.58547764  0.07959076  0.24454425    -0.23800
C1140       C  0.60178960  0.08299798  0.21000078     0.18400
C1141       C  0.62208529  0.08759264  0.22846793     0.15600
C1142       C  0.62600790  0.08952144  0.28107487    -0.18800
C1143       C  0.63830375  0.09075678  0.19393807    -0.20600
C1144       C  0.63487133  0.09054199  0.14164822    -0.13200
C1145       C  0.61516474  0.08714101  0.12295706     0.03500
C1146       C  0.59842784  0.08270534  0.15737703    -0.25300
H1147       H  0.57676078  0.07918724  0.32274512     0.08500
H1148       H  0.56980682  0.07598593  0.23114595     0.12200
H1149       H  0.64163656  0.09335735  0.29535411     0.12100
H1150       H  0.65383219  0.09396097  0.20737629     0.11800
H1151       H  0.64783709  0.09349613  0.11578644     0.12400
H1152       H  0.58320449  0.08022888  0.14355782     0.14300
C1153       C  0.55086062  0.96418344  0.98199668    -0.05700
C1154       C  0.57256924  0.97309741  0.99596842    -0.05600
C1155       C  0.58638038  0.99559967  0.99836144    -0.23800
C1156       C  0.57876270  0.00956552  0.98635689     0.18400
C1157       C  0.55695935  0.00068905  0.97235869     0.15600
C1158       C  0.54317840  0.97820671  0.97109394    -0.18800
C1159       C  0.54915801  0.01443595  0.96016950    -0.20600
C1160       C  0.56266691  0.03682482  0.96316981    -0.13200
C1161       C  0.58413728  0.04581570  0.97824140     0.03500
C1162       C  0.59230102  0.03220483  0.98923604    -0.25300
H1163       H  0.57901228  0.96270618  0.00402377     0.08500
H1164       H  0.60302869  0.00206460  0.00919432     0.12200
H1165       H  0.52636395  0.97171726  0.96197179     0.12100
H1166       H  0.53250554  0.00787058  0.94920134     0.11800
H1167       H  0.55620312  0.04719753  0.95508461     0.12400
H1168       H  0.60880280  0.03920589  0.00199797     0.14300
C1169       C  0.20028268  0.70975496  0.42344458    -0.05700
C1170       C  0.19556372  0.71735939  0.46847145    -0.05600
C1171       C  0.17553977  0.70523842  0.49260576    -0.23800
C1172       C  0.15971078  0.68532658  0.47194057     0.18400
C1173       C  0.16396619  0.67805031  0.42547969     0.15600
C1174       C  0.18422711  0.69015545  0.40181005    -0.18800
C1175       C  0.14795053  0.65864439  0.40369176    -0.20600
C1176       C  0.12830634  0.64606536  0.42868134    -0.13200
C1177       C  0.12433613  0.65201455  0.47715955     0.03500
C1178       C  0.13998788  0.67231831  0.49756066    -0.25300
H1179       H  0.20757055  0.73248559  0.48575686     0.08500
H1180       H  0.17257286  0.71128535  0.52788175     0.12200
H1181       H  0.18755502  0.68420650  0.36681972     0.12100
H1182       H  0.15074625  0.65295288  0.36765728     0.11800
H1183       H  0.11651023  0.63086204  0.41128954     0.12400
H1184       H  0.13733352  0.67801246  0.53355676     0.14300
C1185       C  0.31487302  0.64270034  0.57275324    -0.05700
C1186       C  0.32289731  0.62904703  0.58603674    -0.05600
C1187       C  0.31595728  0.60930653  0.56071488    -0.23800
C1188       C  0.30051892  0.60245925  0.52200861     0.18400
C1189       C  0.29056345  0.61465351  0.51218173     0.15600
C1190       C  0.29697484  0.63400407  0.53939873    -0.18800
C1191       C  0.27500219  0.60780016  0.47365200    -0.20600
C1192       C  0.26984375  0.58943060  0.44411105    -0.13200
C1193       C  0.27992599  0.57736360  0.45283944     0.03500
C1194       C  0.29507495  0.58383539  0.49252879    -0.25300
H1195       H  0.33595196  0.63454933  0.61303409     0.08500
H1196       H  0.32342838  0.59991374  0.56978023     0.12200
H1197       H  0.28858777  0.64262517  0.53217133     0.12100
H1198       H  0.26716744  0.61693886  0.46554291     0.11800
H1199       H  0.25794685  0.58467447  0.41428168     0.12400
H1200       H  0.30279882  0.57454046  0.50011671     0.14300
C1201       C  0.29012252  0.71320850  0.43706298    -0.05700
C1202       C  0.29735704  0.70130147  0.40904749    -0.05600
C1203       C  0.30681708  0.69098142  0.43359237    -0.23800
C1204       C  0.30888125  0.69203031  0.48680574     0.18400
C1205       C  0.30164929  0.70387327  0.51542641     0.15600
C1206       C  0.29250920  0.71459243  0.49040160    -0.18800
C1207       C  0.30388310  0.70492621  0.56851830    -0.20600
C1208       C  0.31245413  0.69374340  0.59322492    -0.13200
C1209       C  0.31834519  0.68042234  0.56576343     0.03500
C1210       C  0.31774284  0.68111997  0.51180088    -0.25300
H1211       H  0.29582792  0.70009256  0.36796152     0.08500
H1212       H  0.31228471  0.68195262  0.41097061     0.12200
H1213       H  0.28695926  0.72370467  0.51243806     0.12100
H1214       H  0.29908100  0.71452426  0.59109303     0.11800
H1215       H  0.31476551  0.69611439  0.63381984     0.12400
H1216       H  0.32338011  0.67225786  0.48910568     0.14300
C1217       C  0.49122785  0.80981201  0.43044994    -0.05700
C1218       C  0.47435938  0.81100237  0.45431569    -0.05600
C1219       C  0.47797386  0.83016355  0.47724372    -0.23800
C1220       C  0.49845875  0.84872855  0.47573168     0.18400
C1221       C  0.51561085  0.84799811  0.45140578     0.15600
C1222       C  0.51199877  0.82833830  0.42962621    -0.18800
C1223       C  0.53592259  0.86698521  0.44918894    -0.20600
C1224       C  0.53903150  0.88654214  0.46982040    -0.13200
C1225       C  0.52194320  0.88737113  0.49400041     0.03500
C1226       C  0.50187950  0.86806346  0.49777437    -0.25300
H1227       H  0.45833450  0.79688442  0.45618781     0.08500
H1228       H  0.46466840  0.83050376  0.49578981     0.12200
H1229       H  0.52513209  0.82752611  0.41152699     0.12100
H1230       H  0.54935229  0.86677175  0.43101114     0.11800
H1231       H  0.55488322  0.90073259  0.46725982     0.12400
H1232       H  0.48864364  0.86823597  0.51723518     0.14300
C1233       C  0.54346303  0.67669657  0.49530867    -0.05700
C1234       C  0.54418530  0.67858330  0.44180413    -0.05600
C1235       C  0.53728263  0.69122204  0.41743341    -0.23800
C1236       C  0.52912113  0.70210861  0.44582699     0.18400
C1237       C  0.52910365  0.70123830  0.49957915     0.15600
C1238       C  0.53619740  0.68857634  0.52393217    -0.18800
C1239       C  0.52103713  0.71225728  0.52805941    -0.20600
C1240       C  0.51242446  0.72337620  0.50354648    -0.13200
C1241       C  0.51137943  0.72340880  0.45014790     0.03500
C1242       C  0.52011161  0.71304296  0.42139116    -0.25300
H1243       H  0.54907570  0.66928815  0.41841675     0.08500
H1244       H  0.53750061  0.69173540  0.37618304     0.12200
H1245       H  0.53462927  0.68707127  0.56483485     0.12100
H1246       H  0.52093030  0.71186675  0.56931782     0.11800
H1247       H  0.50575474  0.73123034  0.52645023     0.12400
H1248       H  0.51948082  0.71310840  0.38014580     0.14300
C1249       C  0.35106703  0.67844413  0.57343190    -0.05700
C1250       C  0.36556278  0.69964578  0.59110333    -0.05600
C1251       C  0.38620337  0.71202095  0.56996004    -0.23800
C1252       C  0.39288098  0.70375162  0.52968962     0.18400
C1253       C  0.37876991  0.68258967  0.51155681     0.15600
C1254       C  0.35816980  0.67024601  0.53304946    -0.18800
C1255       C  0.38510711  0.67432669  0.47058999    -0.20600
C1256       C  0.40499342  0.68713141  0.44673781    -0.13200
C1257       C  0.41902976  0.70840778  0.46350262     0.03500
C1258       C  0.41303758  0.71650954  0.50583614    -0.25300
H1259       H  0.36058237  0.70690502  0.62050974     0.08500
H1260       H  0.39670627  0.72832199  0.58414270     0.12200
H1261       H  0.34738189  0.65479057  0.51539177     0.12100
H1262       H  0.37448160  0.65807009  0.45628573     0.11800
H1263       H  0.40927598  0.68046024  0.41460691     0.12400
H1264       H  0.42372352  0.73292579  0.51914753     0.14300
C1265       C  0.52194313  0.88462553  0.02291252    -0.05700
C1266       C  0.51310783  0.88096239  0.07243406    -0.05600
C1267       C  0.50823041  0.86217098  0.09891540    -0.23800
C1268       C  0.51280704  0.84701057  0.07720845     0.18400
C1269       C  0.52445724  0.85200351  0.03097801     0.15600
C1270       C  0.52927068  0.87090318  0.00457890    -0.18800
C1271       C  0.52992652  0.83732873  0.01024764    -0.20600
C1272       C  0.52232784  0.81712203  0.03267016    -0.13200
C1273       C  0.50914534  0.81120874  0.07623633     0.03500
C1274       C  0.50517020  0.82661007  0.09959705    -0.25300
H1275       H  0.50841734  0.89185013  0.08907325     0.08500
H1276       H  0.49997763  0.85903504  0.13524281     0.12200
H1277       H  0.53795535  0.87420532  0.96899398     0.12100
H1278       H  0.53922035  0.84104784  0.97533841     0.11800
H1279       H  0.52595070  0.80571298  0.01444985     0.12400
H1280       H  0.49539276  0.82240444  0.13382167     0.14300
C1281       C  0.50474300  0.70813367  0.08826151    -0.05700
C1282       C  0.52516122  0.71301676  0.10568319    -0.05600
C1283       C  0.53400944  0.70020901  0.09082907    -0.23800
C1284       C  0.52293145  0.68267480  0.05683439     0.18400
C1285       C  0.50265824  0.67816286  0.03834354     0.15600
C1286       C  0.49353517  0.69046980  0.05499380    -0.18800
C1287       C  0.49203872  0.66187950  0.00192511    -0.20600
C1288       C  0.50134822  0.65026963  0.98343598    -0.13200
C1289       C  0.52098489  0.65341142  0.00287106     0.03500
C1290       C  0.53183056  0.66992446  0.03990828    -0.25300
H1291       H  0.53420809  0.72665294  0.13114321     0.08500
H1292       H  0.54967056  0.70426154  0.10522562     0.12200
H1293       H  0.47797641  0.68677791  0.04047194     0.12100
H1294       H  0.47672521  0.65849778  0.98648413     0.11800
H1295       H  0.49293030  0.63850594  0.95343474     0.12400
H1296       H  0.54731785  0.67338025  0.05411695     0.14300
C1297       C  0.32215837  0.63978337  0.91819661    -0.05700
C1298       C  0.30313556  0.62298410  0.89553897    -0.05600
C1299       C  0.29294676  0.60180683  0.91452054    -0.23800
C1300       C  0.30136776  0.59691644  0.95697008     0.18400
C1301       C  0.32143886  0.61293223  0.97660485     0.15600
C1302       C  0.33230655  0.63356185  0.95479219    -0.18800
C1303       C  0.32980749  0.60858166  0.01991283    -0.20600
C1304       C  0.31786606  0.58894747  0.04522985    -0.13200
C1305       C  0.29766340  0.57294755  0.02681457     0.03500
C1306       C  0.28978147  0.57672019  0.98147752    -0.25300
H1307       H  0.29518688  0.62658376  0.86571466     0.08500
H1308       H  0.27778371  0.58963795  0.89803463     0.12200
H1309       H  0.34811788  0.64492512  0.96933746     0.12100
H1310       H  0.34516752  0.62075196  0.03560538     0.11800
H1311       H  0.32438140  0.58634587  0.07969668     0.12400
H1312       H  0.27422297  0.56445857  0.96691058     0.14300
C1313       C  0.33379766  0.66606930  0.84626688    -0.05700
C1314       C  0.35074427  0.66453584  0.82312336    -0.05600
C1315       C  0.35380537  0.66593672  0.76998665    -0.23800
C1316       C  0.33861614  0.66635128  0.73754586     0.18400
C1317       C  0.31987727  0.66456232  0.75925272     0.15600
C1318       C  0.31794422  0.66529665  0.81282341    -0.18800
C1319       C  0.30295981  0.66107299  0.72698608    -0.20600
C1320       C  0.30505996  0.66043468  0.67392655    -0.13200
C1321       C  0.32493288  0.66579989  0.65092429     0.03500
C1322       C  0.34138269  0.66765686  0.68387370    -0.25300
H1323       H  0.36187480  0.66241786  0.84630481     0.08500
H1324       H  0.36771887  0.66592134  0.75417340     0.12200
H1325       H  0.30339121  0.66406904  0.82813475     0.12100
H1326       H  0.28787279  0.65836271  0.74280920     0.11800
H1327       H  0.29131801  0.65681195  0.65047474     0.12400
H1328       H  0.35610004  0.66946170  0.66800359     0.14300
C1329       C  0.35048640  0.67923802  0.93943919    -0.05700
C1330       C  0.34738007  0.67883833  0.99309292    -0.05600
C1331       C  0.36452810  0.68936375  0.02701360    -0.23800
C1332       C  0.38565084  0.70104872  0.00901856     0.18400
C1333       C  0.38932230  0.70331874  0.95587621     0.15600
C1334       C  0.37176205  0.69309371  0.92147592    -0.18800
C1335       C  0.41062050  0.71540501  0.93814500    -0.20600
C1336       C  0.42793862  0.72459085  0.97244619    -0.13200
C1337       C  0.42448332  0.72200624  0.02543395     0.03500
C1338       C  0.40313408  0.71031653  0.04338503    -0.25300
H1339       H  0.33146889  0.66909410  0.00933840     0.08500
H1340       H  0.36124419  0.68773997  0.06757255     0.12200
H1341       H  0.37507667  0.69589597  0.88130296     0.12100
H1342       H  0.41394377  0.71744670  0.89763153     0.11800
H1343       H  0.44415571  0.73349528  0.95733389     0.12400
H1344       H  0.40011912  0.70824624  0.08403457     0.14300
C1345       C  0.19680962  0.70926054  0.05082574    -0.05700
C1346       C  0.19154218  0.71485151  0.00429160    -0.05600
C1347       C  0.17112425  0.70209784  0.98323483    -0.23800
C1348       C  0.15559499  0.68335594  0.00809501     0.18400
C1349       C  0.16033254  0.67790132  0.05579043     0.15600
C1350       C  0.18093712  0.69096689  0.07711599    -0.18800
C1351       C  0.14458334  0.65910374  0.08024619    -0.20600
C1352       C  0.12519763  0.64491185  0.05546578    -0.13200
C1353       C  0.12116819  0.64914806  0.00566967     0.03500
C1354       C  0.13586526  0.66946150  0.98443219    -0.25300
H1355       H  0.20343509  0.72883369  0.98336830     0.08500
H1356       H  0.16773454  0.70650343  0.94657420     0.12200
H1357       H  0.18479392  0.68656971  0.11322246     0.12100
H1358       H  0.14767465  0.65482405  0.11738367     0.11800
H1359       H  0.11395898  0.62980745  0.07374874     0.12400
H1360       H  0.13284021  0.67450734  0.94852142     0.14300
C1361       C  0.28812807  0.71818397  0.00657881    -0.05700
C1362       C  0.30481326  0.73152475  0.97284476    -0.05600
C1363       C  0.31450671  0.72292009  0.94150356    -0.23800
C1364       C  0.30770651  0.70079088  0.94332480     0.18400
C1365       C  0.29037784  0.68715000  0.97553402     0.15600
C1366       C  0.28068413  0.69587507  0.00683485    -0.18800
C1367       C  0.28364108  0.66514272  0.97774270    -0.20600
C1368       C  0.29509093  0.65700309  0.95208273    -0.13200
C1369       C  0.31349468  0.67059289  0.92221127     0.03500
C1370       C  0.31873892  0.69234551  0.91594965    -0.25300
H1371       H  0.31069444  0.74873825  0.97147233     0.08500
H1372       H  0.32771657  0.73368619  0.91691199     0.12200
H1373       H  0.26764367  0.68536587  0.03217253     0.12100
H1374       H  0.27024980  0.65439880  0.00194711     0.11800
H1375       H  0.29020302  0.64039967  0.95979960     0.12400
H1376       H  0.33271294  0.70315425  0.89334120     0.14300
C1377       C  0.49212949  0.30759840  0.56706829    -0.05700
C1378       C  0.47610652  0.30094795  0.52960969    -0.05600
C1379       C  0.46980787  0.31524893  0.51180508    -0.23800
C1380       C  0.47933459  0.33641984  0.53142237     0.18400
C1381       C  0.49451978  0.34278039  0.57115683     0.15600
C1382       C  0.50087437  0.32839814  0.58862623    -0.18800
C1383       C  0.50360978  0.36367912  0.59170046    -0.20600
C1384       C  0.49927318  0.37878337  0.57013880    -0.13200
C1385       C  0.48607097  0.37351797  0.52664330     0.03500
C1386       C  0.47482996  0.35166336  0.51026100    -0.25300
H1387       H  0.46909039  0.28496923  0.51251981     0.08500
H1388       H  0.45801656  0.30997828  0.48154496     0.12200
H1389       H  0.51307451  0.33360757  0.61792970     0.12100
H1390       H  0.51464974  0.36859512  0.62351591     0.11800
H1391       H  0.50676524  0.39464141  0.58756224     0.12400
H1392       H  0.46381449  0.34692780  0.47841126     0.14300
C1393       C  0.57292754  0.28648000  0.50939251    -0.05700
C1394       C  0.58730340  0.27965813  0.52335987    -0.05600
C1395       C  0.60598808  0.28581919  0.49499799    -0.23800
C1396       C  0.61085648  0.29922053  0.45243365     0.18400
C1397       C  0.59618021  0.30542639  0.43640009     0.15600
C1398       C  0.57717718  0.29891257  0.46482076    -0.18800
C1399       C  0.60115330  0.31847408  0.39299865    -0.20600
C1400       C  0.62155316  0.32742440  0.36989087    -0.13200
C1401       C  0.63768780  0.32421468  0.39102487     0.03500
C1402       C  0.63080521  0.30754722  0.42777069    -0.25300
H1403       H  0.58429965  0.26983867  0.55690453     0.08500
H1404       H  0.61705649  0.28080012  0.50758269     0.12200
H1405       H  0.56606021  0.30400449  0.45310975     0.12100
H1406       H  0.58978782  0.32279614  0.37874878     0.11800
H1407       H  0.62554986  0.33885515  0.33923670     0.12400
H1408       H  0.64128221  0.30186251  0.44035337     0.14300
C1409       C  0.49126461  0.37009962  0.99501233    -0.05700
C1410       C  0.51193615  0.37366531  0.00623314    -0.05600
C1411       C  0.51924103  0.36054391  0.98565943    -0.23800
C1412       C  0.50583119  0.34290775  0.95446146     0.18400
C1413       C  0.48465736  0.33827106  0.94441497     0.15600
C1414       C  0.47754042  0.35202391  0.96419102    -0.18800
C1415       C  0.47098596  0.31982581  0.91513092    -0.20600
C1416       C  0.47828312  0.30631388  0.89593384    -0.13200
C1417       C  0.49953032  0.31125580  0.90458303     0.03500
C1418       C  0.51321562  0.32965551  0.93388424    -0.25300
H1419       H  0.52269424  0.38698725  0.03086388     0.08500
H1420       H  0.53538277  0.36412455  0.99455366     0.12200
H1421       H  0.46132822  0.34828920  0.95615689     0.12100
H1422       H  0.45460733  0.31575448  0.90738475     0.11800
H1423       H  0.46736237  0.29207890  0.87393469     0.12400
H1424       H  0.52949096  0.33337083  0.94177103     0.14300
C1425       C  0.64493394  0.32746323  0.05180393    -0.05700
C1426       C  0.63053606  0.33415079  0.06889840    -0.05600
C1427       C  0.60972245  0.32491772  0.04888952    -0.23800
C1428       C  0.60283616  0.30898715  0.01065762     0.18400
C1429       C  0.61604289  0.30044696  0.99714502     0.15600
C1430       C  0.63626390  0.30863112  0.02051505    -0.18800
C1431       C  0.60950049  0.28494598  0.95780847    -0.20600
C1432       C  0.59068403  0.27891267  0.93025572    -0.13200
C1433       C  0.57763392  0.28765024  0.94263746     0.03500
C1434       C  0.58347690  0.30217700  0.98415799    -0.25300
H1435       H  0.63609257  0.34796422  0.09428471     0.08500
H1436       H  0.59964905  0.33138942  0.06059949     0.12200
H1437       H  0.64560847  0.30121037  0.01056751     0.12100
H1438       H  0.61943237  0.27821851  0.94680044     0.11800
H1439       H  0.58638438  0.26747320  0.89899964     0.12400
H1440       H  0.57349910  0.30896209  0.99427407     0.14300
C1441       C  0.56753720  0.09655282  0.03497305    -0.05700
C1442       C  0.57015349  0.11669017  0.04914668    -0.05600
C1443       C  0.55235510  0.11914869  0.05600020    -0.23800
C1444       C  0.53160252  0.10155731  0.04802665     0.18400
C1445       C  0.52859580  0.08086080  0.03668117     0.15600
C1446       C  0.54667124  0.07839017  0.03110446    -0.18800
C1447       C  0.50764799  0.06335544  0.02866162    -0.20600
C1448       C  0.49008496  0.06666097  0.02899781    -0.13200
C1449       C  0.49326282  0.08746794  0.03746842     0.03500
C1450       C  0.51395263  0.10464848  0.04879740    -0.25300
H1451       H  0.58610094  0.13073002  0.05372847     0.08500
H1452       H  0.55487778  0.13502308  0.06547712     0.12200
H1453       H  0.54453509  0.06274711  0.02088690     0.12100
H1454       H  0.50495390  0.04733659  0.02024373     0.11800
H1455       H  0.47418409  0.05317883  0.02036930     0.12400
H1456       H  0.51641249  0.12064312  0.05651697     0.14300
C1457       C  0.48811197  0.20862208  0.92159056    -0.05700
C1458       C  0.47772024  0.20564829  0.96879978    -0.05600
C1459       C  0.46801799  0.18554358  0.99278920    -0.23800
C1460       C  0.46842234  0.16798998  0.96984694     0.18400
C1461       C  0.47812450  0.17059059  0.92149575     0.15600
C1462       C  0.48802876  0.19091750  0.89777227    -0.18800
C1463       C  0.47815400  0.15293134  0.89826741    -0.20600
C1464       C  0.46983478  0.13329690  0.92398891    -0.13200
C1465       C  0.46155524  0.13087461  0.97385722     0.03500
C1466       C  0.46000093  0.14817414  0.99539971    -0.25300
H1467       H  0.47757258  0.21904803  0.98784733     0.08500
H1468       H  0.46057797  0.18385258  0.02978906     0.12200
H1469       H  0.49588519  0.19302145  0.86115902     0.12100
H1470       H  0.48522282  0.15449135  0.86084381     0.11800
H1471       H  0.47095822  0.12024029  0.90596979     0.12400
H1472       H  0.45311568  0.14695312  0.03264268     0.14300
C1473       C  0.47831368  0.91802767  0.97036777    -0.05700
C1474       C  0.46697917  0.91331515  0.01681598    -0.05600
C1475       C  0.44799123  0.91385976  0.02111529    -0.23800
C1476       C  0.43990112  0.91926819  0.97911351     0.18400
C1477       C  0.45149995  0.92501051  0.93270296     0.15600
C1478       C  0.47075473  0.92446557  0.92863781    -0.18800
C1479       C  0.44330195  0.93068287  0.89101463    -0.20600
C1480       C  0.42355682  0.93003195  0.89496389    -0.13200
C1481       C  0.41163709  0.92356205  0.94047781     0.03500
C1482       C  0.42015679  0.91859283  0.98268344    -0.25300
H1483       H  0.47275265  0.90906828  0.05016226     0.08500
H1484       H  0.43946885  0.90973867  0.05717148     0.12200
H1485       H  0.47932189  0.92826742  0.89274141     0.12100
H1486       H  0.45194385  0.93522375  0.85514286     0.11800
H1487       H  0.41725618  0.93386645  0.86190881     0.12400
H1488       H  0.41126709  0.91395828  0.01826771     0.14300
C1489       C  0.29554373  0.81094809  0.08086761    -0.05700
C1490       C  0.31563575  0.82313888  0.10486746    -0.05600
C1491       C  0.32935677  0.84490722  0.09276941    -0.23800
C1492       C  0.32343290  0.85479514  0.05563591     0.18400
C1493       C  0.30293114  0.84299599  0.03272053     0.15600
C1494       C  0.28896756  0.82121184  0.04595998    -0.18800
C1495       C  0.29716716  0.85295448  0.99542695    -0.20600
C1496       C  0.31229587  0.87350887  0.97740370    -0.13200
C1497       C  0.33357823  0.88453367  0.99615943     0.03500
C1498       C  0.33822522  0.87576565  0.03871702    -0.25300
H1499       H  0.32101026  0.81567061  0.13214021     0.08500
H1500       H  0.34499785  0.85372620  0.11086027     0.12200
H1501       H  0.27349167  0.81199174  0.02724486     0.12100
H1502       H  0.28127130  0.84446182  0.97850776     0.11800
H1503       H  0.30735676  0.88035670  0.94766521     0.12400
H1504       H  0.35400245  0.88452106  0.05615834     0.14300
C1505       C  0.38310250  0.96642252  0.98114041    -0.05700
C1506       C  0.38377414  0.97224214  0.03269910    -0.05600
C1507       C  0.39331618  0.99401217  0.04725697    -0.23800
C1508       C  0.40240059  0.01036132  0.01053510     0.18400
C1509       C  0.40129523  0.00471254  0.95852443     0.15600
C1510       C  0.39167694  0.98283859  0.94427154    -0.18800
C1511       C  0.41033523  0.02107171  0.92174463    -0.20600
C1512       C  0.42129064  0.04286904  0.93659441    -0.13200
C1513       C  0.42332743  0.04861155  0.98841355     0.03500
C1514       C  0.41322802  0.03225540  0.02506789    -0.25300
H1515       H  0.37753998  0.96002009  0.06201780     0.08500
H1516       H  0.39403631  0.99807891  0.08735087     0.12200
H1517       H  0.39110218  0.97872083  0.90441940     0.12100
H1518       H  0.40952384  0.01700560  0.88163143     0.11800
H1519       H  0.42903819  0.05517869  0.90771950     0.12400
H1520       H  0.41430671  0.03654355  0.06510094     0.14300
C1521       C  0.30128914  0.81023736  0.38186877    -0.05700
C1522       C  0.32268140  0.82046450  0.36445980    -0.05600
C1523       C  0.33713044  0.84213589  0.37646601    -0.23800
C1524       C  0.33055801  0.85395577  0.40678200     0.18400
C1525       C  0.30879384  0.84433566  0.42193981     0.15600
C1526       C  0.29419160  0.82252918  0.40906356    -0.18800
C1527       C  0.30232682  0.85648478  0.45142936    -0.20600
C1528       C  0.31764411  0.87702823  0.46994298    -0.13200
C1529       C  0.33980915  0.88565630  0.46042529     0.03500
C1530       C  0.34573285  0.87470645  0.42477597    -0.25300
H1531       H  0.32845923  0.81149514  0.34274307     0.08500
H1532       H  0.35371384  0.84934915  0.36395270     0.12200
H1533       H  0.27765124  0.81489560  0.42219666     0.12100
H1534       H  0.28560579  0.84968077  0.46235456     0.11800
H1535       H  0.31232683  0.88543991  0.49520912     0.12400
H1536       H  0.36222866  0.88160553  0.41242286     0.14300
C1537       C  0.36189697  0.91382508  0.63920040    -0.05700
C1538       C  0.35496988  0.89357036  0.66144895    -0.05600
C1539       C  0.35357320  0.89126730  0.71417150    -0.23800
C1540       C  0.35915645  0.90919740  0.74570767     0.18400
C1541       C  0.36610168  0.92968546  0.72396195     0.15600
C1542       C  0.36745697  0.93188489  0.67070332    -0.18800
C1543       C  0.37181380  0.94759243  0.75599449    -0.20600
C1544       C  0.37109074  0.94525877  0.80895810    -0.13200
C1545       C  0.36440049  0.92498954  0.83060628     0.03500
C1546       C  0.35824410  0.90698245  0.79869064    -0.25300
H1547       H  0.35105762  0.87952286  0.63803731     0.08500
H1548       H  0.34836119  0.87549623  0.73029219     0.12200
H1549       H  0.37276118  0.94754847  0.65382634     0.12100
H1550       H  0.37703768  0.96340285  0.74012662     0.11800
H1551       H  0.37555763  0.95924370  0.83290432     0.12400
H1552       H  0.35328780  0.89131777  0.81517105     0.14300
C1553       C  0.48765285  0.93265310  0.51448288    -0.05700
C1554       C  0.48033526  0.93213030  0.46473449    -0.05600
C1555       C  0.46124324  0.93221263  0.45656647    -0.23800
C1556       C  0.44903507  0.93244543  0.49814769     0.18400
C1557       C  0.45695950  0.93423703  0.54812892     0.15600
C1558       C  0.47633760  0.93459224  0.55583118    -0.18800
C1559       C  0.44475323  0.93433021  0.58983418    -0.20600
C1560       C  0.42438013  0.93159899  0.58226778    -0.13200
C1561       C  0.41593823  0.92874441  0.53296781     0.03500
C1562       C  0.42857541  0.92978727  0.49086493    -0.25300
H1563       H  0.48900049  0.93084835  0.43227850     0.08500
H1564       H  0.45555108  0.93109576  0.41795557     0.12200
H1565       H  0.48157742  0.93457268  0.59403483     0.12100
H1566       H  0.45063106  0.93574203  0.62836065     0.11800
H1567       H  0.41484279  0.93077947  0.61515819     0.12400
H1568       H  0.42222050  0.92790859  0.45266144     0.14300
C1569       C  0.45966613  0.12791479  0.49489245    -0.05700
C1570       C  0.46492054  0.13070721  0.54711841    -0.05600
C1571       C  0.47098958  0.15026412  0.57222276    -0.23800
C1572       C  0.47190799  0.16756739  0.54576279     0.18400
C1573       C  0.46498070  0.16452834  0.49459975     0.15600
C1574       C  0.45864850  0.14470501  0.46967981    -0.18800
C1575       C  0.46573627  0.18183358  0.46822773    -0.20600
C1576       C  0.47442755  0.20224031  0.49136398    -0.13200
C1577       C  0.48254731  0.20574010  0.54123444     0.03500
C1578       C  0.48061702  0.18812419  0.56879915    -0.25300
H1579       H  0.46581070  0.11817271  0.56771595     0.08500
H1580       H  0.47598345  0.15218674  0.61167693     0.12200
H1581       H  0.45445944  0.14333808  0.42997104     0.12100
H1582       H  0.46034542  0.17980655  0.42908225     0.11800
H1583       H  0.47559196  0.21551331  0.46944671     0.12400
H1584       H  0.48663427  0.19059053  0.60746841     0.14300
C1585       C  0.45525218  0.08663802  0.33021548    -0.05700
C1586       C  0.47011460  0.08233965  0.30579584    -0.05600
C1587       C  0.47059857  0.08103338  0.25276890    -0.23800
C1588       C  0.45632014  0.08415715  0.22321459     0.18400
C1589       C  0.44100093  0.08805744  0.24737954     0.15600
C1590       C  0.44046229  0.08910728  0.30072172    -0.18800
C1591       C  0.42699404  0.09159350  0.21771028    -0.20600
C1592       C  0.42876590  0.09217656  0.16464531    -0.13200
C1593       C  0.44425070  0.08878364  0.14051728     0.03500
C1594       C  0.45763968  0.08425659  0.16993149    -0.25300
H1595       H  0.48194156  0.08077924  0.32756050     0.08500
H1596       H  0.48252585  0.07816044  0.23484383     0.12200
H1597       H  0.42883172  0.09227070  0.31923128     0.12100
H1598       H  0.41510162  0.09452643  0.23557173     0.11800
H1599       H  0.41823788  0.09555531  0.14238395     0.12400
H1600       H  0.46982980  0.08192327  0.15146925     0.14300
C1601       C  0.38372335  0.96660030  0.50573426    -0.05700
C1602       C  0.37156228  0.97476288  0.48384398    -0.05600
C1603       C  0.38095201  0.99696462  0.47387552    -0.23800
C1604       C  0.40271866  0.01140389  0.48537481     0.18400
C1605       C  0.41499673  0.00333536  0.50769777     0.15600
C1606       C  0.40549155  0.98114839  0.51751498    -0.18800
C1607       C  0.43680700  0.01749382  0.51873944    -0.20600
C1608       C  0.44657715  0.03937327  0.50645775    -0.13200
C1609       C  0.43469845  0.04754302  0.48363243     0.03500
C1610       C  0.41265134  0.03361570  0.47375745    -0.25300
H1611       H  0.35477882  0.96399535  0.47450578     0.08500
H1612       H  0.37125319  0.00279949  0.45670018     0.12200
H1613       H  0.41544812  0.97522090  0.53266567     0.12100
H1614       H  0.44642388  0.01156181  0.53595363     0.11800
H1615       H  0.46356148  0.04995648  0.51420859     0.12400
H1616       H  0.40354038  0.03990540  0.45549837     0.14300
C1617       C  0.50511864  0.09715953  0.44017666    -0.05700
C1618       C  0.52359632  0.11748670  0.43185759    -0.05600
C1619       C  0.54382773  0.11961268  0.42849364    -0.23800
C1620       C  0.54602958  0.10144665  0.43336622     0.18400
C1621       C  0.52758260  0.08071516  0.43974811     0.15600
C1622       C  0.50711845  0.07865508  0.44269278    -0.18800
C1623       C  0.53009393  0.06259866  0.44400442    -0.20600
C1624       C  0.55071038  0.06516728  0.44324630    -0.13200
C1625       C  0.56904341  0.08587173  0.43852395     0.03500
C1626       C  0.56650020  0.10384685  0.43261962    -0.25300
H1627       H  0.52243423  0.13187739  0.42793201     0.08500
H1628       H  0.55780518  0.13554961  0.42280700     0.12200
H1629       H  0.49296249  0.06287192  0.44853975     0.12100
H1630       H  0.51618081  0.04653962  0.44861200     0.11800
H1631       H  0.55235514  0.05106454  0.44748653     0.12400
H1632       H  0.58051969  0.11979827  0.42732143     0.14300
loop_ 
_geom_bond_atom_site_label_1 
_geom_bond_atom_site_label_2 
_geom_bond_distance 
_geom_bond_site_symmetry_2 
_ccdc_geom_bond_type 
C1            C2   1.542       .  S
C1            C7   1.547       .  S
C1            C5   1.536       .  S
C1         C1569   1.533       .  S
C2            H9   1.086       .  S
C2            C3   1.368       .  D
C3            C4   1.538       .  S
C3         C1609   1.477       .  S
C4            C8   1.537       .  S
C4            C6   1.532       .  S
C4           H10   1.110       .  S
C5           H11   1.087       .  S
C5            C6   1.362       .  D
C6         C1617   1.483       .  S
C7           H12   1.081       .  S
C7            C8   1.370       .  D
C8         C1585   1.483       .  S
C13          C14   1.543       .  S
C13          C19   1.537       .  S
C13          C17   1.549       .  S
C13        C1529   1.539       .  S
C14          H21   1.085       .  S
C14          C15   1.377       .  D
C15          C16   1.542       .  S
C15        C1601   1.494       .  S
C16          C20   1.533       .  S
C16          C18   1.530       .  S
C16          H22   1.109       .  S
C17          H23   1.082       .  S
C17          C18   1.364       .  D
C18        C1561   1.478       .  S
C19          H24   1.086       .  S
C19          C20   1.361       .  D
C20        C1537   1.482       .  S
C25          C26   1.542       .  S
C25          C31   1.542       .  S
C25          C29   1.537       .  S
C25        C1497   1.536       .  S
C26          H33   1.085       .  S
C26          C27   1.364       .  D
C27          C28   1.538       .  S
C27        C1481   1.487       .  S
C28          C32   1.535       .  S
C28          C30   1.544       .  S
C28          H34   1.109       .  S
C29          H35   1.085   1_556  S
C29          C30   1.374       .  D
C30        C1505   1.489       .  S
C31          H36   1.084       .  S
C31          C32   1.364       .  D
C32        C1545   1.479       .  S
C37          C38   1.538       .  S
C37          C43   1.547       .  S
C37          C41   1.541   1_554  S
C37        C1465   1.532   1_554  S
C38          H45   1.087   1_554  S
C38          C39   1.363       .  D
C39          C40   1.529       .  S
C39        C1449   1.480       .  S
C40          C44   1.532       .  S
C40          C42   1.538       .  S
C40          H46   1.110       .  S
C41          H47   1.086       .  S
C41          C42   1.371   1_556  D
C42        C1513   1.482   1_554  S
C43          H48   1.081       .  S
C43          C44   1.366       .  D
C44        C1593   1.477       .  S
In49         O51   2.264       .  S
In49         O52   2.286       .  S
In49         O60   2.252       .  S
In49         O54   2.263       .  S
In49         O56   2.248       .  S
In49         O57   2.275       .  S
In49         O58   2.256       .  S
In49         O61   2.257       .  S
C50          O56   1.260       .  A
C50          O58   1.260       .  A
C50        C1457   1.478       .  S
O51          C59   1.258       .  A
O52          C59   1.262       .  A
C53          O60   1.262       .  A
C53          O54   1.262       .  A
C53        C1417   1.484       .  S
C55          O57   1.263       .  A
C55          O61   1.258       .  A
C55        C1433   1.486       .  S
C59          C68   1.481       .  S
In62         O64   2.273       .  S
In62         O65   2.270       .  S
In62         O73   2.257       .  S
In62         O67   2.255       .  S
In62         O69   2.258       .  S
In62         O70   2.278       .  S
In62         O71   2.253       .  S
In62         O74   2.265       .  S
C63          O69   1.261       .  A
C63          O71   1.260       .  A
C63        C1577   1.482       .  S
O64          C72   1.257       .  A
O65          C72   1.260       .  A
C66          O73   1.262       .  A
C66          O67   1.260       .  A
C66        C1377   1.481       .  S
C68          O70   1.262       .  A
C68          O74   1.261       .  A
C72        C1393   1.487       .  S
In75         O77   2.253       .  S
In75         O78   2.258       .  S
In75         O86   2.260       .  S
In75         O80   2.247       .  S
In75         O82   2.259       .  S
In75         O83   2.275       .  S
In75         O84   2.242       .  S
In75         O87   2.264       .  S
C76          O82   1.264       .  A
C76          O84   1.262       .  A
C76        C1489   1.482       .  S
O77          C85   1.261       .  A
O78          C85   1.263       .  A
C79          O86   1.259       .  A
C79          O80   1.261       .  A
C79        C1345   1.480       .  S
C81          O83   1.260       .  A
C81          O87   1.256       .  A
C81        C1361   1.485       .  S
C85         C126   1.472       .  S
C88        C1297   1.565       .  S
C88        C1313   1.570       .  S
C88        C1329   1.579       .  S
C88        C1369   1.563       .  S
In89         O91   2.263       .  S
In89         O92   2.289       .  S
In89        O100   2.270       .  S
In89         O94   2.248       .  S
In89         O96   2.281       .  S
In89         O97   2.292       .  S
In89         O98   2.272       .  S
In89        O101   2.263       .  S
C90          O96   1.258       .  A
C90          O98   1.260       .  A
C90        C1281   1.490       .  S
O91          C99   1.258       .  A
O92          C99   1.263       .  A
C93         O100   1.262       .  A
C93          O94   1.260       .  A
C93        C1273   1.483       .  S
C95          O97   1.266       .  A
C95         O101   1.261       .  A
C95        C1337   1.497       .  S
C99         C112   1.482       .  S
In102       O104   2.266       .  S
In102       O105   2.280       .  S
In102       O113   2.268       .  S
In102       O107   2.251       .  S
In102       O109   2.271       .  S
In102       O110   2.257       .  S
In102       O111   2.230       .  S
In102       O114   2.268       .  S
C103        O109   1.262       .  A
C103        O111   1.260       .  A
C103       C1217   1.479       .  S
O104        C112   1.261       .  A
O105        C112   1.261       .  A
C106        O113   1.260       .  A
C106        O107   1.257       .  A
C106       C1241   1.479       .  S
C108        O110   1.257       .  A
C108        O114   1.263       .  A
C108       C1257   1.484       .  S
C115       C1185   1.561       .  S
C115       C1209   1.568       .  S
C115       C1249   1.559       .  S
C115       C1321   1.569       .  S
In116       O118   2.265       .  S
In116       O119   2.257       .  S
In116       O127   2.269       .  S
In116       O121   2.249       .  S
In116       O123   2.257       .  S
In116       O124   2.260       .  S
In116       O125   2.267       .  S
In116       O128   2.271       .  S
C117        O123   1.260       .  A
C117        O125   1.262       .  A
C117       C1169   1.486       .  S
O118        C126   1.262       .  A
O119        C126   1.259       .  A
C120        O127   1.260       .  A
C120        O121   1.260       .  A
C120       C1521   1.483       .  S
C122        O124   1.259       .  A
C122        O128   1.260       .  A
C122       C1201   1.484       .  S
C129        C130   1.548       .  S
C129        C135   1.538   1_556  S
C129        C133   1.536       .  S
C129       C1121   1.531       .  S
C130        H137   1.083       .  S
C130        C131   1.371       .  D
C131        C132   1.534   1_556  S
C131       C1161   1.471       .  S
C132        C136   1.537       .  S
C132        C134   1.531       .  S
C132        H138   1.111       .  S
C133        H139   1.087       .  S
C133        C134   1.363   1_556  D
C134       C1441   1.480       .  S
C135        H140   1.086       .  S
C135        C136   1.367       .  D
C136       C1145   1.482       .  S
C141        C142   1.538   1_556  S
C141        C147   1.541       .  S
C141        C145   1.537       .  S
C141       C1265   1.534   1_556  S
C142        H149   1.085       .  S
C142        C143   1.372   1_554  D
C143        C144   1.542       .  S
C143       C1153   1.489       .  S
C144        C148   1.542       .  S
C144        C146   1.539       .  S
C144        H150   1.105       .  S
C145        H151   1.086   1_556  S
C145        C146   1.364       .  D
C146       C1473   1.493       .  S
C147        H152   1.081       .  S
C147        C148   1.368       .  D
C148       C1105   1.493       .  S
C153        C154   1.535       .  S
C153        C159   1.536       .  S
C153        C157   1.547       .  S
C153       C1225   1.528       .  S
C154        H161   1.087       .  S
C154        C155   1.360       .  D
C155        C156   1.538       .  S
C155       C1553   1.480       .  S
C156        C160   1.536       .  S
C156        C158   1.540       .  S
C156        H162   1.110       .  S
C157        H163   1.083       .  S
C157        C158   1.374       .  D
C158       C1097   1.481       .  S
C159        H164   1.086       .  S
C159        C160   1.366       .  D
C160       C1113   1.488       .  S
C165        C166   1.540       .  S
C165        C171   1.552       .  S
C165        C169   1.542       .  S
C165       C1073   1.536       .  S
C166        H173   1.086       .  S
C166        C167   1.364       .  D
C167        C168   1.528       .  S
C167       C1625   1.480       .  S
C168        C172   1.528       .  S
C168        C170   1.533       .  S
C168        H174   1.111       .  S
C169        H175   1.086       .  S
C169        C170   1.368       .  D
C170       C1089   1.476       .  S
C171        H176   1.082       .  S
C171        C172   1.370       .  D
C172       C1137   1.478       .  S
C177        C178   1.538       .  S
C177        C183   1.540       .  S
C177        C181   1.544       .  S
C177       C1009   1.542       .  S
C178        H185   1.086       .  S
C178        C179   1.373       .  D
C179        C180   1.542       .  S
C179       C1041   1.489       .  S
C180        C184   1.540       .  S
C180        C182   1.537       .  S
C180        H186   1.109       .  S
C181        H187   1.085       .  S
C181        C182   1.367       .  D
C182       C1065   1.485       .  S
C183        H188   1.083       .  S
C183        C184   1.368       .  D
C184       C1033   1.494       .  S
C189        C190   1.542       .  S
C189        C195   1.548       .  S
C189        C193   1.528       .  S
C189        C969   1.532       .  S
C190        H197   1.085       .  S
C190        C191   1.372       .  D
C191        C192   1.542       .  S
C191       C1049   1.494       .  S
C192        C196   1.544       .  S
C192        C194   1.535       .  S
C192        H198   1.106       .  S
C193        H199   1.087       .  S
C193        C194   1.358       .  D
C194        C993   1.478       .  S
C195        H200   1.081       .  S
C195        C196   1.375       .  D
C196        C977   1.498       .  S
C201        C202   1.539       .  S
C201        C207   1.549       .  S
C201        C205   1.545   1_556  S
C201        C921   1.540   1_556  S
C202        H209   1.086       .  S
C202        C203   1.364       .  D
C203        C204   1.530       .  S
C203        C929   1.483       .  S
C204        C208   1.535       .  S
C204        C206   1.540       .  S
C204        H210   1.108       .  S
C205        H211   1.085       .  S
C205        C206   1.374   1_554  D
C206        C953   1.490       .  S
C207        H212   1.080       .  S
C207        C208   1.367       .  D
C208        C985   1.490       .  S
C213        C214   1.537       .  S
C213        C219   1.541   1_556  S
C213        C217   1.533       .  S
C213        C897   1.541       .  S
C214        H221   1.086       .  S
C214        C215   1.365   1_556  D
C215        C216   1.539       .  S
C215        C881   1.489       .  S
C216        C220   1.541       .  S
C216        C218   1.546   1_554  S
C216        H222   1.108       .  S
C217        H223   1.086       .  S
C217        C218   1.374       .  D
C218        C945   1.489       .  S
C219        H224   1.079       .  S
C219        C220   1.371       .  D
C220       C1025   1.494       .  S
In225       O227   2.262       .  S
In225       O228   2.282       .  S
In225       O236   2.256       .  S
In225       O230   2.274       .  S
In225       O232   2.305       .  S
In225       O233   2.273       .  S
In225       O234   2.238       .  S
In225       O237   2.267       .  S
C226        O232   1.263       .  A
C226        O234   1.257       .  A
C226        C849   1.487       .  S
O227        C235   1.260       .  A
O228        C235   1.262       .  A
C229        O236   1.262       .  A
C229        O230   1.265       .  A
C229        C833   1.490       .  S
C231        O233   1.265       .  A
C231        O237   1.261       .  A
C231        C865   1.491       .  S
C235        C262   1.480       .  S
C238        C801   1.567       .  S
C238        C817   1.583       .  S
C238        C873   1.577       .  S
C238       C1425   1.566       .  S
In239       O241   2.270       .  S
In239       O242   2.263       .  S
In239       O250   2.238       .  S
In239       O244   2.302       .  S
In239       O246   2.261       .  S
In239       O247   2.261       .  S
In239       O248   2.275       .  S
In239       O251   2.272       .  S
C240        O246   1.259       .  A
C240        O248   1.259       .  A
C240        C905   1.485       .  S
O241        C249   1.262       .  A
O242        C249   1.261       .  A
C243        O250   1.255       .  A
C243        O244   1.260       .  A
C243       C1129   1.486       .  S
C245        O247   1.264       .  A
C245        O251   1.261       .  A
C245        C809   1.489       .  S
C249        C276   1.478       .  S
In252       O254   2.257       .  S
In252       O255   2.280       .  S
In252       O263   2.269       .  S
In252       O257   2.260       .  S
In252       O259   2.237       .  S
In252       O260   2.268       .  S
In252       O261   2.256       .  S
In252       O264   2.288       .  S
C253        O259   1.262       .  A
C253        O261   1.264       .  A
C253        C753   1.481       .  S
O254        C262   1.260       .  A
O255        C262   1.264       .  A
C256        O263   1.261       .  A
C256        O257   1.260       .  A
C256        C769   1.485       .  S
C258        O260   1.255       .  A
C258        O264   1.262       .  A
C258        C785   1.490       .  S
C265        C737   1.570       .  S
C265        C793   1.576       .  S
C265        C825   1.579       .  S
C265       C1401   1.572       .  S
In266       O268   2.268       .  S
In266       O269   2.263       .  S
In266       O277   2.260       .  S
In266       O271   2.267       .  S
In266       O273   2.252       .  S
In266       O274   2.293       .  S
In266       O275   2.271       .  S
In266       O278   2.255       .  S
C267        O273   1.260       .  A
C267        O275   1.263       .  A
C267       C1081   1.484       .  S
O268        C276   1.262       .  A
O269        C276   1.262       .  A
C270        O277   1.260       .  A
C270        O271   1.260       .  A
C270       C1017   1.485       .  S
C272        O274   1.262       .  A
C272        O278   1.257       .  A
C272        C745   1.490       .  S
C279        C280   1.533       .  S
C279        C285   1.540       .  S
C279        C283   1.534       .  S
C279       C1353   1.537   1_556  S
C280        H287   1.086   1_556  S
C280        C281   1.375       .  D
C281        C282   1.551       .  S
C281        C721   1.492       .  S
C282        C286   1.537       .  S
C282        C284   1.540       .  S
C282        H288   1.110       .  S
C283        H289   1.087       .  S
C283        C284   1.365       .  D
C284        C937   1.482       .  S
C285        H290   1.080       .  S
C285        C286   1.362       .  D
C286        C705   1.481       .  S
C291        C292   1.541       .  S
C291        C297   1.549   1_556  S
C291        C295   1.541       .  S
C291        C841   1.544       .  S
C292        H299   1.086       .  S
C292        C293   1.372       .  D
C293        C294   1.539   1_556  S
C293        C729   1.488       .  S
C294        C298   1.533       .  S
C294        C296   1.537       .  S
C294        H300   1.108       .  S
C295        H301   1.085       .  S
C295        C296   1.370   1_556  D
C296        C889   1.494       .  S
C297        H302   1.082       .  S
C297        C298   1.366       .  D
C298        C697   1.486       .  S
C303        C304   1.540       .  S
C303        C309   1.541       .  S
C303        C307   1.536       .  S
C303        C761   1.537       .  S
C304        H311   1.085       .  S
C304        C305   1.364       .  D
C305        C306   1.537       .  S
C305       C1057   1.484       .  S
C306        C310   1.541       .  S
C306        C308   1.543       .  S
C306        H312   1.110       .  S
C307        H313   1.086       .  S
C307        C308   1.373       .  D
C308        C673   1.490       .  S
C309        H314   1.084       .  S
C309        C310   1.366       .  D
C310        C689   1.485       .  S
C315        C316   1.537       .  S
C315        C321   1.547       .  S
C315        C319   1.545       .  S
C315       C1177   1.538       .  S
C316        H323   1.086       .  S
C316        C317   1.360       .  D
C317        C318   1.530       .  S
C317       C1001   1.477       .  S
C318        C322   1.534       .  S
C318        C320   1.539       .  S
C318        H324   1.108       .  S
C319        H325   1.085       .  S
C319        C320   1.375       .  D
C320        C681   1.497       .  S
C321        H326   1.082       .  S
C321        C322   1.372       .  D
C322        C713   1.484       .  S
C327        C328   1.551       .  S
C327        C333   1.542       .  S
C327        C331   1.540       .  S
C327       C1409   1.535   1_554  S
C328        H335   1.083   1_554  S
C328        C329   1.373       .  D
C329        C330   1.539       .  S
C329        C641   1.484       .  S
C330        C334   1.535       .  S
C330        C332   1.529       .  S
C330        H336   1.109       .  S
C331        H337   1.086   1_554  S
C331        C332   1.364       .  D
C332        C657   1.481       .  S
C333        H338   1.086       .  S
C333        C334   1.368       .  D
C334        C625   1.491       .  S
C339        C340   1.533       .  S
C339        C345   1.531   1_556  S
C339        C343   1.551       .  S
C339        C857   1.538       .  S
C340        H347   1.087       .  S
C340        C341   1.363   1_556  D
C341        C342   1.537       .  S
C341        C665   1.484       .  S
C342        C346   1.542       .  S
C342        C344   1.549       .  S
C342        H348   1.108       .  S
C343        H349   1.083       .  S
C343        C344   1.385   1_556  D
C344        C609   1.504   1_554  S
C345        H350   1.087       .  S
C345        C346   1.363       .  D
C346        C601   1.490       .  S
C351        C352   1.536       .  S
C351        C357   1.539       .  S
C351        C355   1.544       .  S
C351        C545   1.538   1_556  S
C352        H359   1.085   1_556  S
C352        C353   1.375       .  D
C353        C354   1.546       .  S
C353        C649   1.492       .  S
C354        C358   1.539       .  S
C354        C356   1.532       .  S
C354        H360   1.109       .  S
C355        H361   1.083       .  S
C355        C356   1.364       .  D
C356        C577   1.487       .  S
C357        H362   1.086       .  S
C357        C358   1.364       .  D
C358        C561   1.481       .  S
C363        C364   1.535       .  S
C363        C369   1.536       .  S
C363        C367   1.551   1_556  S
C363       C1289   1.542   1_556  S
C364        H371   1.087       .  S
C364        C365   1.361       .  D
C365        C366   1.538       .  S
C365        C585   1.491       .  S
C366        C370   1.536       .  S
C366        C368   1.550       .  S
C366        H372   1.110       .  S
C367        H373   1.084       .  S
C367        C368   1.386   1_554  D
C368        C617   1.498       .  S
C369        H374   1.087       .  S
C369        C370   1.362       .  D
C370        C537   1.479       .  S
C375        C376   1.543       .  S
C375        C381   1.540       .  S
C375        C379   1.542       .  S
C375       C1385   1.538       .  S
C376        H383   1.082       .  S
C376        C377   1.363       .  D
C377        C378   1.535       .  S
C377        C521   1.482       .  S
C378        C382   1.540       .  S
C378        C380   1.540       .  S
C378        H384   1.110       .  S
C379        H385   1.086       .  S
C379        C380   1.372       .  D
C380        C497   1.485       .  S
C381        H386   1.085       .  S
C381        C382   1.365       .  D
C382        C633   1.489       .  S
C387        C388   1.541       .  S
C387        C393   1.547       .  S
C387        C391   1.539       .  S
C387        C777   1.539       .  S
C388        H395   1.086       .  S
C388        C389   1.374       .  D
C389        C390   1.543       .  S
C389        C481   1.489       .  S
C390        C394   1.536       .  S
C390        C392   1.532       .  S
C390        H396   1.110       .  S
C391        H397   1.087       .  S
C391        C392   1.361       .  D
C392        C513   1.474       .  S
C393        H398   1.081       .  S
C393        C394   1.368       .  D
C394        C593   1.490       .  S
C399        C400   1.542       .  S
C399        C405   1.544       .  S
C399        C403   1.542       .  S
C399        C449   1.537       .  S
C400        H407   1.084       .  S
C400        C401   1.363       .  D
C401        C402   1.533       .  S
C401        C465   1.481       .  S
C402        C406   1.533       .  S
C402        C404   1.540       .  S
C402        H408   1.109       .  S
C403        H409   1.086       .  S
C403        C404   1.373       .  D
C404        C505   1.487       .  S
C405        H410   1.085       .  S
C405        C406   1.365       .  D
C406        C569   1.481       .  S
C411        C412   1.542       .  S
C411        C417   1.548       .  S
C411        C415   1.535       .  S
C411       C1233   1.533       .  S
C412        H419   1.086       .  S
C412        C413   1.370       .  D
C413        C414   1.540       .  S
C413        C489   1.486       .  S
C414        C418   1.537       .  S
C414        C416   1.534       .  S
C414        H420   1.110       .  S
C415        H421   1.087       .  S
C415        C416   1.363       .  D
C416        C473   1.484       .  S
C417        H422   1.083       .  S
C417        C418   1.370       .  D
C418        C529   1.484       .  S
In423       O425   2.263       .  S
In423       O426   2.265       .  S
In423       O434   2.234       .  S
In423       O428   2.267       .  S
In423       O430   2.254       .  S
In423       O431   2.263       .  S
In423       O432   2.254       .  S
In423       O435   2.252       .  S
C424        O430   1.260       .  A
C424        O432   1.260       .  A
C424        C961   1.482       .  S
O425        C433   1.259       .  A
O426        C433   1.261       .  A
C427        O434   1.262       .  A
C427        O428   1.264       .  A
C427        C457   1.481       .  S
C429        O431   1.263       .  A
C429        O435   1.261       .  A
C429        C446   1.473       .  S
C433       C1193   1.486       .  S
In436       O438   2.258       .  S
In436       O439   2.260       .  S
In436       O447   2.285       .  S
In436       O441   2.233       .  S
In436       O443   2.244       .  S
In436       O444   2.245       .  S
In436       O445   2.268       .  S
In436       O448   2.282       .  S
C437        O443   1.262       .  A
C437        O445   1.263       .  A
C437        C913   1.484       .  S
O438        C446   1.262       .  A
O439        C446   1.260       .  A
C440        O447   1.261       .  A
C440        O441   1.257       .  A
C440        C553   1.483       .  S
C442        O444   1.257       .  A
C442        O448   1.259       .  A
C442       C1305   1.481       .  S
C449        C450   1.411       .  A
C449        C454   1.411       .  A
C450        C451   1.401       .  A
C450        H459   1.083       .  S
C451        C452   1.402       .  A
C451        H460   1.083       .  S
C452        C458   1.410       .  A
C452        C453   1.412       .  A
C453        C455   1.401       .  A
C453        C454   1.404       .  A
C454        H461   1.081       .  S
C455        C456   1.395       .  A
C455        H462   1.084       .  S
C456        C457   1.405       .  A
C456        H463   1.083       .  S
C457        C458   1.408       .  A
C458        H464   1.084       .  S
C465        C466   1.404       .  A
C465        C470   1.406       .  A
C466        C467   1.391       .  A
C466        H475   1.083       .  S
C467        C468   1.398       .  A
C467        H476   1.084       .  S
C468        C474   1.399       .  A
C468        C469   1.415       .  A
C469        C471   1.405       .  A
C469        C470   1.411       .  A
C470        H477   1.084       .  S
C471        C472   1.403       .  A
C471        H478   1.083       .  S
C472        C473   1.405       .  A
C472        H479   1.083       .  S
C473        C474   1.403       .  A
C474        H480   1.084       .  S
C481        C482   1.406       .  A
C481        C486   1.407       .  A
C482        C483   1.399       .  A
C482        H491   1.083       .  S
C483        C484   1.402       .  A
C483        H492   1.084       .  S
C484        C490   1.406       .  A
C484        C485   1.414       .  A
C485        C487   1.403       .  A
C485        C486   1.408       .  A
C486        H493   1.083       .  S
C487        C488   1.400       .  A
C487        H494   1.083       .  S
C488        C489   1.405       .  A
C488        H495   1.083       .  S
C489        C490   1.406       .  A
C490        H496   1.084       .  S
C497        C498   1.404       .  A
C497        C502   1.404       .  A
C498        C499   1.399       .  A
C498        H507   1.079       .  S
C499        C500   1.402       .  A
C499        H508   1.084       .  S
C500        C506   1.409       .  A
C500        C501   1.416       .  A
C501        C503   1.401       .  A
C501        C502   1.407       .  A
C502        H509   1.085       .  S
C503        C504   1.397       .  A
C503        H510   1.084       .  S
C504        C505   1.406       .  A
C504        H511   1.083       .  S
C505        C506   1.405       .  A
C506        H512   1.084       .  S
C513        C514   1.401       .  A
C513        C518   1.403       .  A
C514        C515   1.397       .  A
C514        H523   1.083       .  S
C515        C516   1.403       .  A
C515        H524   1.084       .  S
C516        C522   1.404       .  A
C516        C517   1.416       .  A
C517        C519   1.401       .  A
C517        C518   1.403       .  A
C518        H525   1.085       .  S
C519        C520   1.396       .  A
C519        H526   1.084       .  S
C520        C521   1.406       .  A
C520        H527   1.083       .  S
C521        C522   1.404       .  A
C522        H528   1.084       .  S
C529        C530   1.405       .  A
C529        C534   1.406       .  A
C530        C531   1.397       .  A
C530        H539   1.083       .  S
C531        C532   1.401       .  A
C531        H540   1.084       .  S
C532        C538   1.406       .  A
C532        C533   1.416       .  A
C533        C535   1.403       .  A
C533        C534   1.407       .  A
C534        H541   1.084       .  S
C535        C536   1.399       .  A
C535        H542   1.083       .  S
C536        C537   1.404       .  A
C536        H543   1.083       .  S
C537        C538   1.402       .  A
C538        H544   1.085       .  S
C545        C546   1.412   1_554  A
C545        C550   1.410       .  A
C546        C547   1.403   1_556  A
C546        H555   1.083       .  S
C547        C548   1.404       .  A
C547        H556   1.083   1_554  S
C548        C554   1.412       .  A
C548        C549   1.412       .  A
C549        C551   1.399       .  A
C549        C550   1.402       .  A
C550        H557   1.080       .  S
C551        C552   1.393       .  A
C551        H558   1.084       .  S
C552        C553   1.405       .  A
C552        H559   1.083       .  S
C553        C554   1.410       .  A
C554        H560   1.084       .  S
C561        C562   1.406       .  A
C561        C566   1.404       .  A
C562        C563   1.395       .  A
C562        H571   1.083       .  S
C563        C564   1.401       .  A
C563        H572   1.084       .  S
C564        C570   1.400       .  A
C564        C565   1.413       .  A
C565        C567   1.401       .  A
C565        C566   1.400       .  A
C566        H573   1.083       .  S
C567        C568   1.395       .  A
C567        H574   1.084       .  S
C568        C569   1.404       .  A
C568        H575   1.082       .  S
C569        C570   1.406       .  A
C570        H576   1.084       .  S
C577        C578   1.405       .  A
C577        C582   1.411       .  A
C578        C579   1.389       .  A
C578        H587   1.084       .  S
C579        C580   1.397       .  A
C579        H588   1.084       .  S
C580        C586   1.397       .  A
C580        C581   1.414       .  A
C581        C583   1.409       .  A
C581        C582   1.415       .  A
C582        H589   1.084       .  S
C583        C584   1.409       .  A
C583        H590   1.083       .  S
C584        C585   1.405       .  A
C584        H591   1.083       .  S
C585        C586   1.405       .  A
C586        H592   1.084       .  S
C593        C594   1.405       .  A
C593        C598   1.406       .  A
C594        C595   1.403       .  A
C594        H603   1.082       .  S
C595        C596   1.404       .  A
C595        H604   1.083       .  S
C596        C602   1.411       .  A
C596        C597   1.414       .  A
C597        C599   1.399       .  A
C597        C598   1.403       .  A
C598        H605   1.084       .  S
C599        C600   1.394       .  A
C599        H606   1.084       .  S
C600        C601   1.408       .  A
C600        H607   1.083       .  S
C601        C602   1.407       .  A
C602        H608   1.083       .  S
C609        C610   1.408       .  A
C609        C614   1.413   1_556  A
C610        C611   1.402       .  A
C610        H619   1.082       .  S
C611        C612   1.404       .  A
C611        H620   1.084       .  S
C612        C618   1.411       .  A
C612        C613   1.412   1_556  A
C613        C615   1.406       .  A
C613        C614   1.412       .  A
C614        H621   1.083       .  S
C615        C616   1.404       .  A
C615        H622   1.084       .  S
C616        C617   1.405   1_554  A
C616        H623   1.083       .  S
C617        C618   1.411       .  A
C618        H624   1.084       .  S
C625        C626   1.407       .  A
C625        C630   1.409       .  A
C626        C627   1.394       .  A
C626        H635   1.077       .  S
C627        C628   1.398       .  A
C627        H636   1.084       .  S
C628        C634   1.402       .  A
C628        C629   1.412       .  A
C629        C631   1.402       .  A
C629        C630   1.405       .  A
C630        H637   1.083       .  S
C631        C632   1.398       .  A
C631        H638   1.083       .  S
C632        C633   1.408       .  A
C632        H639   1.082       .  S
C633        C634   1.403       .  A
C634        H640   1.078       .  S
C641        C642   1.403       .  A
C641        C646   1.406   1_554  A
C642        C643   1.395       .  A
C642        H651   1.080       .  S
C643        C644   1.400       .  A
C643        H652   1.084       .  S
C644        C650   1.406       .  A
C644        C645   1.415   1_554  A
C645        C647   1.402       .  A
C645        C646   1.410       .  A
C646        H653   1.084       .  S
C647        C648   1.400       .  A
C647        H654   1.083       .  S
C648        C649   1.407       .  A
C648        H655   1.082       .  S
C649        C650   1.407   1_556  A
C650        H656   1.083       .  S
C657        C658   1.405       .  A
C657        C662   1.401   1_554  A
C658        C659   1.400       .  A
C658        H667   1.083       .  S
C659        C660   1.403       .  A
C659        H668   1.084       .  S
C660        C666   1.408       .  A
C660        C661   1.416   1_554  A
C661        C663   1.398       .  A
C661        C662   1.401       .  A
C662        H669   1.085       .  S
C663        C664   1.392       .  A
C663        H670   1.084       .  S
C664        C665   1.406   1_556  A
C664        H671   1.083       .  S
C665        C666   1.406       .  A
C666        H672   1.084       .  S
C673        C674   1.405       .  A
C673        C678   1.409       .  A
C674        C675   1.398       .  A
C674        H683   1.083       .  S
C675        C676   1.403   1_655  A
C675        H684   1.084       .  S
C676        C682   1.405       .  A
C676        C677   1.412   1_455  A
C677        C679   1.404   1_655  A
C677        C678   1.410       .  A
C678        H685   1.084       .  S
C679        C680   1.402       .  A
C679        H686   1.084       .  S
C680        C681   1.407       .  A
C680        H687   1.082       .  S
C681        C682   1.409       .  A
C682        H688   1.081       .  S
C689        C690   1.407       .  A
C689        C694   1.404       .  A
C690        C691   1.398       .  A
C690        H699   1.083       .  S
C691        C692   1.402       .  A
C691        H700   1.084       .  S
C692        C698   1.405       .  A
C692        C693   1.414       .  A
C693        C695   1.401       .  A
C693        C694   1.404       .  A
C694        H701   1.084       .  S
C695        C696   1.396       .  A
C695        H702   1.084       .  S
C696        C697   1.405       .  A
C696        H703   1.083       .  S
C697        C698   1.406       .  A
C698        H704   1.084       .  S
C705        C706   1.407       .  A
C705        C710   1.404       .  A
C706        C707   1.390       .  A
C706        H715   1.083       .  S
C707        C708   1.397       .  A
C707        H716   1.084       .  S
C708        C714   1.400       .  A
C708        C709   1.416       .  A
C709        C711   1.403       .  A
C709        C710   1.410       .  A
C710        H717   1.084       .  S
C711        C712   1.401       .  A
C711        H718   1.084       .  S
C712        C713   1.406       .  A
C712        H719   1.081       .  S
C713        C714   1.401       .  A
C714        H720   1.084       .  S
C721        C722   1.407   1_556  A
C721        C726   1.409       .  A
C722        C723   1.397       .  A
C722        H731   1.083       .  S
C723        C724   1.401   1_455  A
C723        H732   1.084       .  S
C724        C730   1.405       .  A
C724        C725   1.414   1_654  A
C725        C727   1.405   1_455  A
C725        C726   1.411       .  A
C726        H733   1.084       .  S
C727        C728   1.403       .  A
C727        H734   1.084       .  S
C728        C729   1.405       .  A
C728        H735   1.083       .  S
C729        C730   1.406   1_556  A
C730        H736   1.084       .  S
C737        C738   1.423       .  A
C737        C742   1.415       .  A
C738        C739   1.395       .  A
C738        H747   1.082       .  S
C739        C740   1.396       .  A
C739        H748   1.084       .  S
C740        C746   1.412       .  A
C740        C741   1.414       .  A
C741        C743   1.402       .  A
C741        C742   1.416       .  A
C742        H749   1.079       .  S
C743        C744   1.401       .  A
C743        H750   1.084       .  S
C744        C745   1.407       .  A
C744        H751   1.083       .  S
C745        C746   1.407       .  A
C746        H752   1.084       .  S
C753        C754   1.406       .  A
C753        C758   1.407       .  A
C754        C755   1.397       .  A
C754        H763   1.083       .  S
C755        C756   1.402       .  A
C755        H764   1.084       .  S
C756        C762   1.406       .  A
C756        C757   1.412       .  A
C757        C759   1.401       .  A
C757        C758   1.407       .  A
C758        H765   1.084       .  S
C759        C760   1.399       .  A
C759        H766   1.084       .  S
C760        C761   1.411       .  A
C760        H767   1.081       .  S
C761        C762   1.412       .  A
C762        H768   1.083       .  S
C769        C770   1.405       .  A
C769        C774   1.408       .  A
C770        C771   1.399       .  A
C770        H779   1.083       .  S
C771        C772   1.404       .  A
C771        H780   1.084       .  S
C772        C778   1.408       .  A
C772        C773   1.412       .  A
C773        C775   1.402       .  A
C773        C774   1.410       .  A
C774        H781   1.084       .  S
C775        C776   1.400       .  A
C775        H782   1.084       .  S
C776        C777   1.411       .  A
C776        H783   1.083       .  S
C777        C778   1.415       .  A
C778        H784   1.078       .  S
C785        C786   1.409       .  A
C785        C790   1.403       .  A
C786        C787   1.405       .  A
C786        H795   1.083       .  S
C787        C788   1.405       .  A
C787        H796   1.083       .  S
C788        C794   1.416       .  A
C788        C789   1.411       .  A
C789        C791   1.393       .  A
C789        C790   1.408       .  A
C790        H797   1.084       .  S
C791        C792   1.394       .  A
C791        H798   1.084       .  S
C792        C793   1.422       .  A
C792        H799   1.073       .  S
C793        C794   1.422       .  A
C794        H800   1.084       .  S
C801        C802   1.414       .  A
C801        C806   1.422   1_554  A
C802        C803   1.409       .  A
C802        H811   1.080       .  S
C803        C804   1.407   1_554  A
C803        H812   1.083       .  S
C804        C810   1.416       .  A
C804        C805   1.408       .  A
C805        C807   1.403       .  A
C805        C806   1.404       .  A
C806        H813   1.083       .  S
C807        C808   1.397       .  A
C807        H814   1.084       .  S
C808        C809   1.404       .  A
C808        H815   1.083       .  S
C809        C810   1.414       .  A
C810        H816   1.084       .  S
C817        C818   1.419       .  A
C817        C822   1.426       .  A
C818        C819   1.405       .  A
C818        H827   1.074       .  S
C819        C820   1.402       .  A
C819        H828   1.086       .  S
C820        C826   1.422       .  A
C820        C821   1.409       .  A
C821        C823   1.405       .  A
C821        C822   1.426       .  A
C822        H829   1.085       .  S
C823        C824   1.409       .  A
C823        H830   1.085       .  S
C824        C825   1.417       .  A
C824        H831   1.082       .  S
C825        C826   1.424       .  A
C826        H832   1.082       .  S
C833        C834   1.407       .  A
C833        C838   1.408       .  A
C834        C835   1.401       .  A
C834        H843   1.083       .  S
C835        C836   1.403       .  A
C835        H844   1.084       .  S
C836        C842   1.411       .  A
C836        C837   1.412       .  A
C837        C839   1.400       .  A
C837        C838   1.411       .  A
C838        H845   1.084       .  S
C839        C840   1.400       .  A
C839        H846   1.084       .  S
C840        C841   1.413       .  A
C840        H847   1.079   1_556  S
C841        C842   1.414       .  A
C842        H848   1.084       .  S
C849        C850   1.404       .  A
C849        C854   1.415       .  A
C850        C851   1.392       .  A
C850        H859   1.084       .  S
C851        C852   1.399       .  A
C851        H860   1.084       .  S
C852        C858   1.400       .  A
C852        C853   1.411       .  A
C853        C855   1.410       .  A
C853        C854   1.420       .  A
C854        H861   1.084       .  S
C855        C856   1.413       .  A
C855        H862   1.083       .  S
C856        C857   1.410       .  A
C856        H863   1.080       .  S
C857        C858   1.411       .  A
C858        H864   1.085       .  S
C865        C866   1.408       .  A
C865        C870   1.405       .  A
C866        C867   1.406   1_556  A
C866        H875   1.083       .  S
C867        C868   1.406       .  A
C867        H876   1.083       .  S
C868        C874   1.417       .  A
C868        C869   1.412   1_554  A
C869        C871   1.395       .  A
C869        C870   1.410       .  A
C870        H877   1.083       .  S
C871        C872   1.395       .  A
C871        H878   1.083       .  S
C872        C873   1.423   1_556  A
C872        H879   1.078       .  S
C873        C874   1.421       .  A
C874        H880   1.084       .  S
C881        C882   1.406       .  A
C881        C886   1.405       .  A
C882        C883   1.404       .  A
C882        H891   1.083       .  S
C883        C884   1.407       .  A
C883        H892   1.083       .  S
C884        C890   1.410       .  A
C884        C885   1.412       .  A
C885        C887   1.398       .  A
C885        C886   1.398       .  A
C886        H893   1.084       .  S
C887        C888   1.392       .  A
C887        H894   1.084       .  S
C888        C889   1.407       .  A
C888        H895   1.081       .  S
C889        C890   1.413       .  A
C890        H896   1.083       .  S
C897        C898   1.412       .  A
C897        C902   1.414       .  A
C898        C899   1.401       .  A
C898        H907   1.083       .  S
C899        C900   1.402       .  A
C899        H908   1.084       .  S
C900        C906   1.411       .  A
C900        C901   1.412       .  A
C901        C903   1.402       .  A
C901        C902   1.407       .  A
C902        H909   1.079   1_556  S
C903        C904   1.398       .  A
C903        H910   1.084       .  S
C904        C905   1.405       .  A
C904        H911   1.083       .  S
C905        C906   1.409       .  A
C906        H912   1.084       .  S
C913        C914   1.405       .  A
C913        C918   1.410       .  A
C914        C915   1.396   1_554  A
C914        H923   1.083       .  S
C915        C916   1.402   1_556  A
C915        H924   1.084       .  S
C916        C922   1.406   1_554  A
C916        C917   1.412       .  A
C917        C919   1.403       .  A
C917        C918   1.412       .  A
C918        H925   1.084       .  S
C919        C920   1.402       .  A
C919        H926   1.084       .  S
C920        C921   1.411       .  A
C920        H927   1.083       .  S
C921        C922   1.413   1_554  A
C922        H928   1.078       .  S
C929        C930   1.406       .  A
C929        C934   1.402       .  A
C930        C931   1.401       .  A
C930        H939   1.083       .  S
C931        C932   1.404       .  A
C931        H940   1.083       .  S
C932        C938   1.409       .  A
C932        C933   1.415       .  A
C933        C935   1.398       .  A
C933        C934   1.399       .  A
C934        H941   1.084       .  S
C935        C936   1.391       .  A
C935        H942   1.084       .  S
C936        C937   1.406       .  A
C936        H943   1.083       .  S
C937        C938   1.405       .  A
C938        H944   1.084       .  S
C945        C946   1.405       .  A
C945        C950   1.410   1_556  A
C946        C947   1.394       .  A
C946        H955   1.082       .  S
C947        C948   1.400   1_655  A
C947        H956   1.084       .  S
C948        C954   1.400       .  A
C948        C949   1.412   1_456  A
C949        C951   1.406   1_655  A
C949        C950   1.409       .  A
C950        H957   1.083       .  S
C951        C952   1.404       .  A
C951        H958   1.084       .  S
C952        C953   1.406   1_554  A
C952        H959   1.083       .  S
C953        C954   1.405       .  A
C954        H960   1.084       .  S
C961        C962   1.405       .  A
C961        C966   1.407       .  A
C962        C963   1.399       .  A
C962        H971   1.083       .  S
C963        C964   1.404       .  A
C963        H972   1.084       .  S
C964        C970   1.408       .  A
C964        C965   1.412       .  A
C965        C967   1.400       .  A
C965        C966   1.407       .  A
C966        H973   1.084       .  S
C967        C968   1.398       .  A
C967        H974   1.084       .  S
C968        C969   1.411       .  A
C968        H975   1.083       .  S
C969        C970   1.414       .  A
C970        H976   1.079       .  S
C977        C978   1.409       .  A
C977        C982   1.411       .  A
C978        C979   1.396       .  A
C978        H987   1.080       .  S
C979        C980   1.399       .  A
C979        H988   1.084       .  S
C980        C986   1.404       .  A
C980        C981   1.412       .  A
C981        C983   1.403       .  A
C981        C982   1.407       .  A
C982        H989   1.083       .  S
C983        C984   1.399       .  A
C983        H990   1.084       .  S
C984        C985   1.407       .  A
C984        H991   1.083       .  S
C985        C986   1.406       .  A
C986        H992   1.083       .  S
C993        C994   1.406       .  A
C993        C998   1.404       .  A
C994        C995   1.391       .  A
C994       H1003   1.083       .  S
C995        C996   1.398       .  A
C995       H1004   1.084       .  S
C996       C1002   1.398       .  A
C996        C997   1.415       .  A
C997        C999   1.403       .  A
C997        C998   1.405       .  A
C998       H1005   1.084       .  S
C999       C1000   1.399       .  A
C999       H1006   1.084       .  S
C1000      C1001   1.404       .  A
C1000      H1007   1.083       .  S
C1001      C1002   1.402       .  A
C1002      H1008   1.085       .  S
C1009      C1010   1.413       .  A
C1009      C1014   1.413       .  A
C1010      C1011   1.400       .  A
C1010      H1019   1.081       .  S
C1011      C1012   1.401       .  A
C1011      H1020   1.083       .  S
C1012      C1018   1.409       .  A
C1012      C1013   1.412       .  A
C1013      C1015   1.403       .  A
C1013      C1014   1.409       .  A
C1014      H1021   1.083       .  S
C1015      C1016   1.400       .  A
C1015      H1022   1.083       .  S
C1016      C1017   1.406       .  A
C1016      H1023   1.083       .  S
C1017      C1018   1.408       .  A
C1018      H1024   1.084       .  S
C1025      C1026   1.409       .  A
C1025      C1030   1.412       .  A
C1026      C1027   1.388       .  A
C1026      H1035   1.081       .  S
C1027      C1028   1.396       .  A
C1027      H1036   1.084       .  S
C1028      C1034   1.397       .  A
C1028      C1029   1.411       .  A
C1029      C1031   1.406       .  A
C1029      C1030   1.412       .  A
C1030      H1037   1.082       .  S
C1031      C1032   1.405       .  A
C1031      H1038   1.083       .  S
C1032      C1033   1.407       .  A
C1032      H1039   1.081       .  S
C1033      C1034   1.405       .  A
C1034      H1040   1.083       .  S
C1041      C1042   1.405       .  A
C1041      C1046   1.407       .  A
C1042      C1043   1.400       .  A
C1042      H1051   1.083       .  S
C1043      C1044   1.404   1_655  A
C1043      H1052   1.084       .  S
C1044      C1050   1.408       .  A
C1044      C1045   1.413       .  A
C1045      C1047   1.403       .  A
C1045      C1046   1.407   1_455  A
C1046      H1053   1.083       .  S
C1047      C1048   1.399       .  A
C1047      H1054   1.084       .  S
C1048      C1049   1.407       .  A
C1048      H1055   1.082       .  S
C1049      C1050   1.409       .  A
C1050      H1056   1.084       .  S
C1057      C1058   1.405       .  A
C1057      C1062   1.406       .  A
C1058      C1059   1.393       .  A
C1058      H1067   1.083       .  S
C1059      C1060   1.399       .  A
C1059      H1068   1.084       .  S
C1060      C1066   1.402       .  A
C1060      C1061   1.415       .  A
C1061      C1063   1.404       .  A
C1061      C1062   1.409       .  A
C1062      H1069   1.084       .  S
C1063      C1064   1.401       .  A
C1063      H1070   1.083       .  S
C1064      C1065   1.405       .  A
C1064      H1071   1.083       .  S
C1065      C1066   1.404       .  A
C1066      H1072   1.084       .  S
C1073      C1074   1.411       .  A
C1073      C1078   1.414       .  A
C1074      C1075   1.398       .  A
C1074      H1083   1.083       .  S
C1075      C1076   1.400       .  A
C1075      H1084   1.083       .  S
C1076      C1082   1.409       .  A
C1076      C1077   1.413       .  A
C1077      C1079   1.404       .  A
C1077      C1078   1.411       .  A
C1078      H1085   1.079       .  S
C1079      C1080   1.400       .  A
C1079      H1086   1.084       .  S
C1080      C1081   1.406       .  A
C1080      H1087   1.083       .  S
C1081      C1082   1.406       .  A
C1082      H1088   1.084       .  S
C1089      C1090   1.404       .  A
C1089      C1094   1.402       .  A
C1090      C1091   1.396       .  A
C1090      H1099   1.083       .  S
C1091      C1092   1.401       .  A
C1091      H1100   1.084   1_545  S
C1092      C1098   1.404   1_545  A
C1092      C1093   1.416       .  A
C1093      C1095   1.401       .  A
C1093      C1094   1.405       .  A
C1094      H1101   1.085       .  S
C1095      C1096   1.397   1_545  A
C1095      H1102   1.084       .  S
C1096      C1097   1.405       .  A
C1096      H1103   1.083       .  S
C1097      C1098   1.403       .  A
C1098      H1104   1.084       .  S
C1105      C1106   1.410       .  A
C1105      C1110   1.408       .  A
C1106      C1107   1.395       .  A
C1106      H1115   1.082       .  S
C1107      C1108   1.399       .  A
C1107      H1116   1.084       .  S
C1108      C1114   1.402       .  A
C1108      C1109   1.412       .  A
C1109      C1111   1.401       .  A
C1109      C1110   1.404       .  A
C1110      H1117   1.080       .  S
C1111      C1112   1.398       .  A
C1111      H1118   1.084       .  S
C1112      C1113   1.405       .  A
C1112      H1119   1.074       .  S
C1113      C1114   1.407       .  A
C1114      H1120   1.084       .  S
C1121      C1122   1.410       .  A
C1121      C1126   1.409       .  A
C1122      C1123   1.408       .  A
C1122      H1131   1.079       .  S
C1123      C1124   1.407       .  A
C1123      H1132   1.083       .  S
C1124      C1130   1.415       .  A
C1124      C1125   1.412       .  A
C1125      C1127   1.398       .  A
C1125      C1126   1.399       .  A
C1126      H1133   1.085   1_556  S
C1127      C1128   1.392       .  A
C1127      H1134   1.084   1_556  S
C1128      C1129   1.406       .  A
C1128      H1135   1.083       .  S
C1129      C1130   1.413       .  A
C1130      H1136   1.084       .  S
C1137      C1138   1.406       .  A
C1137      C1142   1.401       .  A
C1138      C1139   1.395       .  A
C1138      H1147   1.083       .  S
C1139      C1140   1.401       .  A
C1139      H1148   1.084       .  S
C1140      C1146   1.403       .  A
C1140      C1141   1.415       .  A
C1141      C1143   1.400       .  A
C1141      C1142   1.403       .  A
C1142      H1149   1.084       .  S
C1143      C1144   1.395       .  A
C1143      H1150   1.083       .  S
C1144      C1145   1.405       .  A
C1144      H1151   1.083       .  S
C1145      C1146   1.405       .  A
C1146      H1152   1.084       .  S
C1153      C1154   1.407       .  A
C1153      C1158   1.405       .  A
C1154      C1155   1.402       .  A
C1154      H1163   1.083   1_556  S
C1155      C1156   1.404   1_565  A
C1155      H1164   1.083   1_566  S
C1156      C1162   1.408       .  A
C1156      C1157   1.414       .  A
C1157      C1159   1.401       .  A
C1157      C1158   1.399   1_545  A
C1158      H1165   1.083       .  S
C1159      C1160   1.393       .  A
C1159      H1166   1.084       .  S
C1160      C1161   1.400       .  A
C1160      H1167   1.083       .  S
C1161      C1162   1.405       .  A
C1162      H1168   1.084   1_556  S
C1169      C1170   1.407       .  A
C1169      C1174   1.406       .  A
C1170      C1171   1.402       .  A
C1170      H1179   1.083       .  S
C1171      C1172   1.404       .  A
C1171      H1180   1.084       .  S
C1172      C1178   1.413       .  A
C1172      C1173   1.413       .  A
C1173      C1175   1.399       .  A
C1173      C1174   1.408       .  A
C1174      H1181   1.084       .  S
C1175      C1176   1.397       .  A
C1175      H1182   1.084       .  S
C1176      C1177   1.411       .  A
C1176      H1183   1.083       .  S
C1177      C1178   1.415       .  A
C1178      H1184   1.079       .  S
C1185      C1186   1.414       .  A
C1185      C1190   1.417       .  A
C1186      C1187   1.400       .  A
C1186      H1195   1.082       .  S
C1187      C1188   1.401       .  A
C1187      H1196   1.084       .  S
C1188      C1194   1.409       .  A
C1188      C1189   1.411       .  A
C1189      C1191   1.404       .  A
C1189      C1190   1.407       .  A
C1190      H1197   1.081       .  S
C1191      C1192   1.400       .  A
C1191      H1198   1.084       .  S
C1192      C1193   1.405       .  A
C1192      H1199   1.083       .  S
C1193      C1194   1.409       .  A
C1194      H1200   1.084       .  S
C1201      C1202   1.405       .  A
C1201      C1206   1.408       .  A
C1202      C1203   1.399       .  A
C1202      H1211   1.083       .  S
C1203      C1204   1.403       .  A
C1203      H1212   1.084       .  S
C1204      C1210   1.406       .  A
C1204      C1205   1.410       .  A
C1205      C1207   1.401       .  A
C1205      C1206   1.410       .  A
C1206      H1213   1.084       .  S
C1207      C1208   1.402       .  A
C1207      H1214   1.084       .  S
C1208      C1209   1.416       .  A
C1208      H1215   1.078       .  S
C1209      C1210   1.420       .  A
C1210      H1216   1.084       .  S
C1217      C1218   1.404       .  A
C1217      C1222   1.409       .  A
C1218      C1219   1.392       .  A
C1218      H1227   1.083       .  S
C1219      C1220   1.399       .  A
C1219      H1228   1.084       .  S
C1220      C1226   1.398       .  A
C1220      C1221   1.412       .  A
C1221      C1223   1.406       .  A
C1221      C1222   1.412       .  A
C1222      H1229   1.084       .  S
C1223      C1224   1.405       .  A
C1223      H1230   1.083       .  S
C1224      C1225   1.409       .  A
C1224      H1231   1.079       .  S
C1225      C1226   1.409       .  A
C1226      H1232   1.085       .  S
C1233      C1234   1.411       .  A
C1233      C1238   1.413       .  A
C1234      C1235   1.398       .  A
C1234      H1243   1.083       .  S
C1235      C1236   1.399       .  A
C1235      H1244   1.084       .  S
C1236      C1242   1.408       .  A
C1236      C1237   1.413       .  A
C1237      C1239   1.403       .  A
C1237      C1238   1.408       .  A
C1238      H1245   1.080       .  S
C1239      C1240   1.398       .  A
C1239      H1246   1.084       .  S
C1240      C1241   1.405       .  A
C1240      H1247   1.083       .  S
C1241      C1242   1.405       .  A
C1242      H1248   1.084       .  S
C1249      C1250   1.413       .  A
C1249      C1254   1.420       .  A
C1250      C1251   1.402       .  A
C1250      H1259   1.083       .  S
C1251      C1252   1.404       .  A
C1251      H1260   1.083       .  S
C1252      C1258   1.410       .  A
C1252      C1253   1.410       .  A
C1253      C1255   1.404       .  A
C1253      C1254   1.404       .  A
C1254      H1261   1.080       .  S
C1255      C1256   1.397       .  A
C1255      H1262   1.084       .  S
C1256      C1257   1.403       .  A
C1256      H1263   1.083       .  S
C1257      C1258   1.412       .  A
C1258      H1264   1.084       .  S
C1265      C1266   1.411       .  A
C1265      C1270   1.412       .  A
C1266      C1267   1.399       .  A
C1266      H1275   1.083       .  S
C1267      C1268   1.401       .  A
C1267      H1276   1.084       .  S
C1268      C1274   1.408       .  A
C1268      C1269   1.413       .  A
C1269      C1271   1.402       .  A
C1269      C1270   1.405       .  A
C1270      H1277   1.080   1_554  S
C1271      C1272   1.397       .  A
C1271      H1278   1.084   1_554  S
C1272      C1273   1.406       .  A
C1272      H1279   1.083       .  S
C1273      C1274   1.408       .  A
C1274      H1280   1.084       .  S
C1281      C1282   1.408       .  A
C1281      C1286   1.402       .  A
C1282      C1283   1.409       .  A
C1282      H1291   1.083       .  S
C1283      C1284   1.408       .  A
C1283      H1292   1.083       .  S
C1284      C1290   1.424       .  A
C1284      C1285   1.416       .  A
C1285      C1287   1.394       .  A
C1285      C1286   1.407       .  A
C1286      H1293   1.085       .  S
C1287      C1288   1.390   1_554  A
C1287      H1294   1.084   1_554  S
C1288      C1289   1.414   1_556  A
C1288      H1295   1.083       .  S
C1289      C1290   1.416       .  A
C1290      H1296   1.082       .  S
C1297      C1298   1.416       .  A
C1297      C1302   1.417       .  A
C1298      C1299   1.404       .  A
C1298      H1307   1.081       .  S
C1299      C1300   1.403       .  A
C1299      H1308   1.083       .  S
C1300      C1306   1.411       .  A
C1300      C1301   1.410       .  A
C1301      C1303   1.401   1_556  A
C1301      C1302   1.401       .  A
C1302      H1309   1.080       .  S
C1303      C1304   1.394       .  A
C1303      H1310   1.084       .  S
C1304      C1305   1.405       .  A
C1304      H1311   1.083       .  S
C1305      C1306   1.409   1_554  A
C1306      H1312   1.084       .  S
C1313      C1314   1.414       .  A
C1313      C1318   1.425       .  A
C1314      C1315   1.407       .  A
C1314      H1323   1.082       .  S
C1315      C1316   1.405       .  A
C1315      H1324   1.083       .  S
C1316      C1322   1.419       .  A
C1316      C1317   1.407       .  A
C1317      C1319   1.403       .  A
C1317      C1318   1.415       .  A
C1318      H1325   1.082       .  S
C1319      C1320   1.403       .  A
C1319      H1326   1.083       .  S
C1320      C1321   1.413       .  A
C1320      H1327   1.083       .  S
C1321      C1322   1.423       .  A
C1322      H1328   1.082       .  S
C1329      C1330   1.423       .  A
C1329      C1334   1.419       .  A
C1330      C1331   1.395   1_556  A
C1330      H1339   1.082   1_556  S
C1331      C1332   1.395       .  A
C1331      H1340   1.084       .  S
C1332      C1338   1.414       .  A
C1332      C1333   1.414   1_554  A
C1333      C1335   1.404       .  A
C1333      C1334   1.420       .  A
C1334      H1341   1.078       .  S
C1335      C1336   1.405       .  A
C1335      H1342   1.084       .  S
C1336      C1337   1.409   1_556  A
C1336      H1343   1.083       .  S
C1337      C1338   1.407       .  A
C1338      H1344   1.084       .  S
C1345      C1346   1.403       .  A
C1345      C1350   1.410       .  A
C1346      C1347   1.394   1_554  A
C1346      H1355   1.083   1_554  S
C1347      C1348   1.401   1_556  A
C1347      H1356   1.084       .  S
C1348      C1354   1.401   1_554  A
C1348      C1349   1.411       .  A
C1349      C1351   1.404       .  A
C1349      C1350   1.409       .  A
C1350      H1357   1.084       .  S
C1351      C1352   1.403       .  A
C1351      H1358   1.083       .  S
C1352      C1353   1.411       .  A
C1352      H1359   1.083       .  S
C1353      C1354   1.412   1_554  A
C1354      H1360   1.076       .  S
C1361      C1362   1.407   1_554  A
C1361      C1366   1.405       .  A
C1362      C1363   1.402       .  A
C1362      H1371   1.083       .  S
C1363      C1364   1.404       .  A
C1363      H1372   1.084       .  S
C1364      C1370   1.410       .  A
C1364      C1365   1.412       .  A
C1365      C1367   1.397       .  A
C1365      C1366   1.407   1_556  A
C1366      H1373   1.084       .  S
C1367      C1368   1.396       .  A
C1367      H1374   1.084   1_556  S
C1368      C1369   1.419       .  A
C1368      H1375   1.077       .  S
C1369      C1370   1.417       .  A
C1370      H1376   1.084       .  S
C1377      C1378   1.406       .  A
C1377      C1382   1.405       .  A
C1378      C1379   1.401       .  A
C1378      H1387   1.083       .  S
C1379      C1380   1.404       .  A
C1379      H1388   1.084       .  S
C1380      C1386   1.409       .  A
C1380      C1381   1.412       .  A
C1381      C1383   1.398       .  A
C1381      C1382   1.406       .  A
C1382      H1389   1.084       .  S
C1383      C1384   1.397       .  A
C1383      H1390   1.084       .  S
C1384      C1385   1.412       .  A
C1384      H1391   1.078       .  S
C1385      C1386   1.413       .  A
C1386      H1392   1.084       .  S
C1393      C1394   1.405       .  A
C1393      C1398   1.413       .  A
C1394      C1395   1.397       .  A
C1394      H1403   1.083       .  S
C1395      C1396   1.403       .  A
C1395      H1404   1.083       .  S
C1396      C1402   1.402       .  A
C1396      C1397   1.409       .  A
C1397      C1399   1.406       .  A
C1397      C1398   1.412       .  A
C1398      H1405   1.083       .  S
C1399      C1400   1.407       .  A
C1399      H1406   1.083       .  S
C1400      C1401   1.414       .  A
C1400      H1407   1.083       .  S
C1401      C1402   1.421       .  A
C1402      H1408   1.079       .  S
C1409      C1410   1.411   1_556  A
C1409      C1414   1.414       .  A
C1410      C1411   1.394   1_554  A
C1410      H1419   1.083       .  S
C1411      C1412   1.397       .  A
C1411      H1420   1.084       .  S
C1412      C1418   1.406       .  A
C1412      C1413   1.414       .  A
C1413      C1415   1.406       .  A
C1413      C1414   1.416       .  A
C1414      H1421   1.080       .  S
C1415      C1416   1.404       .  A
C1415      H1422   1.083       .  S
C1416      C1417   1.406       .  A
C1416      H1423   1.083       .  S
C1417      C1418   1.405       .  A
C1418      H1424   1.084       .  S
C1425      C1426   1.415       .  A
C1425      C1430   1.419       .  A
C1426      C1427   1.401       .  A
C1426      H1435   1.083       .  S
C1427      C1428   1.402       .  A
C1427      H1436   1.083       .  S
C1428      C1434   1.409   1_554  A
C1428      C1429   1.411   1_554  A
C1429      C1431   1.405       .  A
C1429      C1430   1.408   1_556  A
C1430      H1437   1.079       .  S
C1431      C1432   1.401       .  A
C1431      H1438   1.083       .  S
C1432      C1433   1.405       .  A
C1432      H1439   1.083       .  S
C1433      C1434   1.410       .  A
C1434      H1440   1.084       .  S
C1441      C1442   1.404       .  A
C1441      C1446   1.407       .  A
C1442      C1443   1.391       .  A
C1442      H1451   1.083       .  S
C1443      C1444   1.398       .  A
C1443      H1452   1.084       .  S
C1444      C1450   1.398       .  A
C1444      C1445   1.415       .  A
C1445      C1447   1.405       .  A
C1445      C1446   1.408       .  A
C1446      H1453   1.083       .  S
C1447      C1448   1.402       .  A
C1447      H1454   1.083       .  S
C1448      C1449   1.405       .  A
C1448      H1455   1.083       .  S
C1449      C1450   1.401       .  A
C1450      H1456   1.084       .  S
C1457      C1458   1.404       .  A
C1457      C1462   1.406       .  A
C1458      C1459   1.397       .  A
C1458      H1467   1.083       .  S
C1459      C1460   1.403       .  A
C1459      H1468   1.084   1_556  S
C1460      C1466   1.405       .  A
C1460      C1461   1.412       .  A
C1461      C1463   1.400       .  A
C1461      C1462   1.406       .  A
C1462      H1469   1.084       .  S
C1463      C1464   1.398       .  A
C1463      H1470   1.084       .  S
C1464      C1465   1.410       .  A
C1464      H1471   1.083       .  S
C1465      C1466   1.413       .  A
C1466      H1472   1.077   1_556  S
C1473      C1474   1.408   1_556  A
C1473      C1478   1.409       .  A
C1474      C1475   1.393       .  A
C1474      H1483   1.083       .  S
C1475      C1476   1.398   1_554  A
C1475      H1484   1.083       .  S
C1476      C1482   1.402       .  A
C1476      C1477   1.414       .  A
C1477      C1479   1.406       .  A
C1477      C1478   1.412       .  A
C1478      H1485   1.082       .  S
C1479      C1480   1.404       .  A
C1479      H1486   1.083       .  S
C1480      C1481   1.405       .  A
C1480      H1487   1.083       .  S
C1481      C1482   1.405       .  A
C1482      H1488   1.084   1_556  S
C1489      C1490   1.405       .  A
C1489      C1494   1.408       .  A
C1490      C1491   1.397       .  A
C1490      H1499   1.083       .  S
C1491      C1492   1.401       .  A
C1491      H1500   1.084       .  S
C1492      C1498   1.405       .  A
C1492      C1493   1.412       .  A
C1493      C1495   1.401   1_554  A
C1493      C1494   1.408       .  A
C1494      H1501   1.084       .  S
C1495      C1496   1.400       .  A
C1495      H1502   1.084       .  S
C1496      C1497   1.412       .  A
C1496      H1503   1.080       .  S
C1497      C1498   1.411   1_556  A
C1498      H1504   1.084       .  S
C1505      C1506   1.406   1_556  A
C1505      C1510   1.407       .  A
C1506      C1507   1.398       .  A
C1506      H1515   1.082       .  S
C1507      C1508   1.402   1_565  A
C1507      H1516   1.084       .  S
C1508      C1514   1.402       .  A
C1508      C1509   1.411   1_554  A
C1509      C1511   1.404       .  A
C1509      C1510   1.402   1_545  A
C1510      H1517   1.079       .  S
C1511      C1512   1.398       .  A
C1511      H1518   1.084       .  S
C1512      C1513   1.404       .  A
C1512      H1519   1.083       .  S
C1513      C1514   1.406   1_556  A
C1514      H1520   1.084       .  S
C1521      C1522   1.405       .  A
C1521      C1526   1.410       .  A
C1522      C1523   1.396       .  A
C1522      H1531   1.083       .  S
C1523      C1524   1.401       .  A
C1523      H1532   1.084       .  S
C1524      C1530   1.404       .  A
C1524      C1525   1.412       .  A
C1525      C1527   1.403       .  A
C1525      C1526   1.410       .  A
C1526      H1533   1.084       .  S
C1527      C1528   1.402       .  A
C1527      H1534   1.084       .  S
C1528      C1529   1.411       .  A
C1528      H1535   1.083       .  S
C1529      C1530   1.412       .  A
C1530      H1536   1.079       .  S
C1537      C1538   1.406       .  A
C1537      C1542   1.406       .  A
C1538      C1539   1.393       .  A
C1538      H1547   1.083       .  S
C1539      C1540   1.399       .  A
C1539      H1548   1.084       .  S
C1540      C1546   1.399       .  A
C1540      C1541   1.414       .  A
C1541      C1543   1.403       .  A
C1541      C1542   1.406       .  A
C1542      H1549   1.084       .  S
C1543      C1544   1.400       .  A
C1543      H1550   1.083       .  S
C1544      C1545   1.403       .  A
C1544      H1551   1.080       .  S
C1545      C1546   1.402       .  A
C1546      H1552   1.085       .  S
C1553      C1554   1.405       .  A
C1553      C1558   1.401       .  A
C1554      C1555   1.398       .  A
C1554      H1563   1.083       .  S
C1555      C1556   1.402       .  A
C1555      H1564   1.083       .  S
C1556      C1562   1.403       .  A
C1556      C1557   1.414       .  A
C1557      C1559   1.402       .  A
C1557      C1558   1.401       .  A
C1558      H1565   1.075       .  S
C1559      C1560   1.395       .  A
C1559      H1566   1.083       .  S
C1560      C1561   1.403       .  A
C1560      H1567   1.083       .  S
C1561      C1562   1.405       .  A
C1562      H1568   1.084       .  S
C1569      C1570   1.410       .  A
C1569      C1574   1.414       .  A
C1570      C1571   1.397       .  A
C1570      H1579   1.083       .  S
C1571      C1572   1.400       .  A
C1571      H1580   1.083       .  S
C1572      C1578   1.406       .  A
C1572      C1573   1.412       .  A
C1573      C1575   1.404       .  A
C1573      C1574   1.408       .  A
C1574      H1581   1.077       .  S
C1575      C1576   1.399       .  A
C1575      H1582   1.083       .  S
C1576      C1577   1.405       .  A
C1576      H1583   1.083       .  S
C1577      C1578   1.406       .  A
C1578      H1584   1.084       .  S
C1585      C1586   1.405       .  A
C1585      C1590   1.405       .  A
C1586      C1587   1.396       .  A
C1586      H1595   1.083       .  S
C1587      C1588   1.401       .  A
C1587      H1596   1.084       .  S
C1588      C1594   1.401       .  A
C1588      C1589   1.414       .  A
C1589      C1591   1.403       .  A
C1589      C1590   1.403       .  A
C1590      H1597   1.084       .  S
C1591      C1592   1.397       .  A
C1591      H1598   1.084       .  S
C1592      C1593   1.403       .  A
C1592      H1599   1.083       .  S
C1593      C1594   1.403       .  A
C1594      H1600   1.085       .  S
C1601      C1602   1.406       .  A
C1601      C1606   1.409       .  A
C1602      C1603   1.404       .  A
C1602      H1611   1.083       .  S
C1603      C1604   1.406   1_565  A
C1603      H1612   1.083   1_565  S
C1604      C1610   1.411       .  A
C1604      C1605   1.413       .  A
C1605      C1607   1.402       .  A
C1605      C1606   1.402   1_545  A
C1606      H1613   1.083       .  S
C1607      C1608   1.395       .  A
C1607      H1614   1.084       .  S
C1608      C1609   1.400       .  A
C1608      H1615   1.083       .  S
C1609      C1610   1.407       .  A
C1610      H1616   1.084       .  S
C1617      C1618   1.406       .  A
C1617      C1622   1.407       .  A
C1618      C1619   1.390       .  A
C1618      H1627   1.083       .  S
C1619      C1620   1.397       .  A
C1619      H1628   1.084       .  S
C1620      C1626   1.397       .  A
C1620      C1621   1.414       .  A
C1621      C1623   1.405       .  A
C1621      C1622   1.408       .  A
C1622      H1629   1.083       .  S
C1623      C1624   1.402       .  A
C1623      H1630   1.084       .  S
C1624      C1625   1.405       .  A
C1624      H1631   1.083       .  S
C1625      C1626   1.401       .  A
C1626      H1632   1.084       .  S
