geometry optimzed in LAMMPS
_audit_creation_date              2020-11-30 
_audit_creation_method            'lammps2cif' 
_symmetry_space_group_name_H-M    'P1' 
_symmetry_Int_Tables_number       1 
_symmetry_cell_setting            triclinic 
loop_ 
_symmetry_equiv_pos_as_xyz 
  x,y,z 
_cell_length_a                    43.64916853 
_cell_length_b                    97.27233788765115 
_cell_length_c                    33.47461294137773 
_cell_angle_alpha                 90.09490067277498 
_cell_angle_beta                  117.17892724966842 
_cell_angle_gamma                 90.21810838322487 
loop_ 
_atom_site_label 
_atom_site_type_symbol 
_atom_site_fract_x 
_atom_site_fract_y 
_atom_site_fract_z 
_atom_site_charge 
N1          N  0.65758915  0.28325848  0.05939695    -0.02600
C2          C  0.64334234  0.29557749  0.06173086     0.00000
C3          C  0.64501278  0.29762945  0.10338516    -0.22900
C4          C  0.65920769  0.28616193  0.12757090    -0.23100
C5          C  0.66713049  0.27748986  0.10082317    -0.00100
H6          H  0.63375519  0.30601468  0.11341940     0.13700
H7          H  0.66172905  0.28401362  0.16065890     0.13700
N8          N  0.73315534  0.29455869  0.82201885    -0.02600
C9          C  0.74056838  0.30829618  0.82298123     0.00000
C10         C  0.73636533  0.31270758  0.78169325    -0.22900
C11         C  0.72757082  0.30146286  0.75446774    -0.23100
C12         C  0.72556317  0.29042559  0.77919559    -0.00100
H13         H  0.74298220  0.32273659  0.77384320     0.13700
H14         H  0.72536967  0.30117623  0.72093121     0.13700
N15         N  0.72681214  0.19475728  0.59813895    -0.02600
C16         C  0.73302823  0.18132404  0.61101767     0.00000
C17         C  0.75936918  0.18055930  0.65453811    -0.22900
C18         C  0.76696990  0.19378343  0.67038065    -0.23100
C19         C  0.74615828  0.20225975  0.63560955    -0.00100
H20         H  0.76810607  0.17139195  0.67487370     0.13700
H21         H  0.78264570  0.19677314  0.70504470     0.13700
N22         N  0.72178189  0.18609198  0.30918389    -0.02600
C23         C  0.73534686  0.17325332  0.31774836     0.00000
C24         C  0.72770477  0.16632971  0.27833356    -0.22900
C25         C  0.70904846  0.17526435  0.24414561    -0.23100
C26         C  0.70626876  0.18744498  0.26380639    -0.00100
H27         H  0.73698288  0.15631208  0.27494457     0.13700
H28         H  0.70183186  0.17363194  0.20896337     0.13700
N29         N  0.81528981  0.89857393  0.53429382    -0.26400
N30         N  0.82111458  0.88528317  0.53323405    -0.34300
C31         C  0.80391176  0.87834735  0.55155268     0.01900
C32         C  0.78666473  0.88776344  0.56492686     0.08000
C33         C  0.79430301  0.90045759  0.55316626    -0.05100
H34         H  0.80549378  0.86736200  0.55716206     0.08600
H35         H  0.78665545  0.91040468  0.56000430     0.09800
Cu36       Cu  0.85626245  0.87750991  0.51323528     0.44200
Cu37       Cu  0.84070944  0.91384380  0.51824635     0.42000
Cu38       Cu  0.91423957  0.90308741  0.50531285     0.43900
N39         N  0.89804082  0.87282250  0.50182183    -0.33800
N40         N  0.91952850  0.88214270  0.50010489    -0.28100
C41         C  0.94586988  0.87575641  0.49765666    -0.04200
C42         C  0.94082210  0.86171614  0.49777911     0.08100
C43         C  0.91007497  0.86024294  0.50014143     0.01900
H44         H  0.96802378  0.88096047  0.49825025     0.09500
H45         H  0.89817141  0.85073029  0.50267084     0.08600
N46         N  0.90373251  0.92343357  0.51186993    -0.35200
N47         N  0.87617970  0.92739377  0.51545425    -0.27400
C48         C  0.87733184  0.94109596  0.52103669    -0.02700
C49         C  0.90718114  0.94599836  0.52118719     0.05900
C50         C  0.92326632  0.93450993  0.51520365     0.04000
H51         H  0.85828701  0.94699544  0.52580572     0.09100
H52         H  0.94786292  0.93416607  0.51472101     0.08000
N53         N  0.61492997  0.89503136  0.75983784    -0.26400
N54         N  0.60395298  0.88217464  0.75074022    -0.34300
C55         C  0.62394799  0.87538129  0.73642909     0.01900
C56         C  0.64843890  0.88443735  0.73627769     0.08000
C57         C  0.64228902  0.89670237  0.75214078    -0.05100
H58         H  0.61820978  0.86522029  0.72151536     0.08600
H59         H  0.65342309  0.90660128  0.75139379     0.09800
Cu60       Cu  0.55625931  0.87577456  0.74358843     0.44200
Cu61       Cu  0.58446553  0.91113570  0.75985525     0.42000
Cu62       Cu  0.49421976  0.90332679  0.70727250     0.43900
N63         N  0.50382540  0.87278833  0.72125981    -0.33800
N64         N  0.48120578  0.88289251  0.70713922    -0.28100
C65         C  0.44929517  0.87754840  0.68615041    -0.04200
C66         C  0.45177108  0.86337898  0.68681355     0.08100
C67         C  0.48678258  0.86072940  0.70995190     0.01900
H68         H  0.42625642  0.88354183  0.66767814     0.09500
H69         H  0.49910025  0.85082675  0.71432607     0.08600
N70         N  0.51381941  0.92233547  0.70325560    -0.35200
N71         N  0.54702283  0.92534199  0.72406935    -0.27400
C72         C  0.55209386  0.93778252  0.71068970    -0.02700
C73         C  0.52054632  0.94281212  0.67988504     0.05900
C74         C  0.49680198  0.93278791  0.67603018     0.04000
H75         H  0.57707987  0.94241915  0.72039891     0.09100
H76         H  0.46943262  0.93282957  0.65370071     0.08000
N77         N  0.37930846  0.09758030  0.47375160    -0.26400
N78         N  0.37021873  0.08446229  0.46835399    -0.34300
C79         C  0.34049996  0.08292782  0.47067809     0.01900
C80         C  0.33010307  0.09565163  0.47811502     0.08000
C81         C  0.35523873  0.10476546  0.47967635    -0.05100
H82         H  0.32869148  0.07310698  0.47047311     0.08600
H83         H  0.35715156  0.11560756  0.48780834     0.09800
Cu84       Cu  0.40198941  0.06863110  0.46971565     0.44200
Cu85       Cu  0.42733580  0.10413691  0.48042828     0.42000
Cu86       Cu  0.49167983  0.07681490  0.52578851     0.43900
N87         N  0.43986216  0.05386472  0.49436848    -0.33800
N88         N  0.47296579  0.05683883  0.51734194    -0.28100
C89         C  0.49040989  0.04519663  0.53502976    -0.04200
C90         C  0.46703868  0.03440151  0.52275813     0.08100
C91         C  0.43527805  0.04029174  0.49669863     0.01900
H92         H  0.51775525  0.04474577  0.55737078     0.09500
H93         H  0.41040613  0.03523752  0.48289031     0.08600
N94         N  0.50295482  0.09701263  0.51751586    -0.36000
N95         N  0.47963275  0.10658472  0.49701604    -0.27400
C96         C  0.49570937  0.11782294  0.49201102    -0.02700
C97         C  0.53111104  0.11541258  0.51147599     0.05900
C98         C  0.53433444  0.10206421  0.52758491     0.04000
H99         H  0.48230581  0.12701327  0.47501925     0.09100
H100        H  0.55781965  0.09633710  0.54577833     0.08000
N101        N  0.08491981  0.10342307  0.56477657    -0.26400
N102        N  0.09459991  0.09058075  0.57667580    -0.34300
C103        C  0.12316110  0.08802179  0.57240822     0.01900
C104        C  0.13194885  0.09970445  0.55639817     0.08000
C105        C  0.10724119  0.10933642  0.55228256    -0.05100
H106        H  0.13563802  0.07811194  0.57836739     0.08600
H107        H  0.10465784  0.11963020  0.53895886     0.09800
Cu108      Cu  0.06599316  0.07603655  0.59029397     0.44200
Cu109      Cu  0.03963669  0.11158415  0.56213664     0.42000
Cu110      Cu  0.98685662  0.08689687  0.58614043     0.43900
N111        N  0.02931182  0.06239921  0.58962002    -0.33800
N112        N  0.99997620  0.06643575  0.58815736    -0.28100
C113        C  0.97990903  0.05537524  0.58285760    -0.04200
C114        C  0.99744765  0.04380164  0.58065557     0.08100
C115        C  0.02874770  0.04864818  0.58522349     0.01900
H116        H  0.95394456  0.05579038  0.57902879     0.09500
H117        H  0.04883097  0.04270479  0.58303882     0.08600
N118        N  0.97383232  0.10727805  0.57044115    -0.35200
N119        N  0.99208390  0.11620113  0.56018134    -0.27400
C120        C  0.97307550  0.12761360  0.54365479    -0.02700
C121        C  0.94165169  0.12579196  0.54399886     0.05900
C122        C  0.94308885  0.11277663  0.56103826     0.04000
H123        H  0.98031864  0.13610348  0.52884322     0.09100
H124        H  0.92201355  0.10717592  0.56211121     0.08000
N125        N  0.13912048  0.72979421  0.07543510    -0.02600
C126        C  0.13841090  0.74071109  0.10059222     0.00000
C127        C  0.10490477  0.74333716  0.09236661    -0.22900
C128        C  0.08459786  0.73332259  0.06384885    -0.23100
C129        C  0.10598111  0.72507405  0.05409519    -0.00100
H130        H  0.09693024  0.75042754  0.11076458     0.13700
H131        H  0.05766474  0.73154891  0.05444332     0.13700
N132        N  0.27917731  0.70366652  0.91776670    -0.02600
C133        C  0.28036232  0.70834530  0.87998646     0.00000
C134        C  0.30026925  0.69978392  0.86839987    -0.22900
C135        C  0.31255355  0.68971856  0.90004192    -0.23100
C136        C  0.29934699  0.69222164  0.92972948    -0.00100
H137        H  0.30587077  0.70095640  0.84024168     0.13700
H138        H  0.32979112  0.68151595  0.90173426     0.13700
N139        N  0.26747376  0.79359307  0.42826512    -0.02600
C140        C  0.27106412  0.78818767  0.39285335     0.00000
C141        C  0.29799493  0.79454708  0.38905079    -0.22900
C142        C  0.31201125  0.80391151  0.42307832    -0.23100
C143        C  0.29299908  0.80324283  0.44650251    -0.00100
H144        H  0.30654982  0.79253926  0.36392575     0.13700
H145        H  0.33376048  0.81059996  0.43001898     0.13700
N146        N  0.13688180  0.78156095  0.60634958    -0.02600
C147        C  0.14417952  0.77448228  0.64477067     0.00000
C148        C  0.11735447  0.77545817  0.65574524    -0.22900
C149        C  0.09292611  0.78354974  0.62400149    -0.23100
C150        C  0.10522048  0.78717317  0.59408309    -0.00100
H151        H  0.11642875  0.77119700  0.68503239     0.13700
H152        H  0.06917451  0.78690144  0.62362204     0.13700
N153        N  0.86976859  0.60183706  0.07527083    -0.26400
N154        N  0.87368181  0.61507117  0.07013684    -0.34300
C155        C  0.85597620  0.62236552  0.08681535     0.01900
C156        C  0.83982897  0.61324733  0.10296292     0.08000
C157        C  0.84915015  0.60032197  0.09489991    -0.05100
H158        H  0.85502064  0.63347503  0.08714199     0.08600
H159        H  0.84114925  0.59050262  0.10224528     0.09800
Cu160      Cu  0.90298826  0.62226748  0.04053593     0.44200
Cu161      Cu  0.89379380  0.58660742  0.05661581     0.42000
Cu162      Cu  0.95639132  0.59750462  0.01910812     0.43900
N163        N  0.93791793  0.62743784  0.01727794    -0.33800
N164        N  0.95848994  0.61865906  0.01121351    -0.28100
C165        C  0.98120358  0.62578965  0.00236957    -0.04200
C166        C  0.97451223  0.63969220  0.00293248     0.08100
C167        C  0.94662890  0.64028951  0.01194046     0.01900
H168        H  0.00226013  0.62123956  0.99846381     0.09500
H169        H  0.93481532  0.64944425  0.01700417     0.08600
N170        N  0.94697762  0.57705778  0.02844135    -0.35200
N171        N  0.92367163  0.57320646  0.04117311    -0.27400
C172        C  0.92370319  0.55943440  0.04407114    -0.02700
C173        C  0.94823525  0.55432606  0.03279411     0.05900
C174        C  0.96258982  0.56577671  0.02313197     0.04000
H175        H  0.90750733  0.55357110  0.05451421     0.09100
H176        H  0.98287598  0.56590067  0.01306876     0.08000
N177        N  0.59888199  0.59109781  0.16734554    -0.26400
N178        N  0.59175207  0.60389749  0.17301881    -0.34300
C179        C  0.61676024  0.61220384  0.17372353     0.01900
C180        C  0.64080754  0.60414031  0.16838781     0.08000
C181        C  0.62874888  0.59080543  0.16514043    -0.05100
H182        H  0.61630701  0.62331222  0.17509694     0.08600
H183        H  0.63970453  0.58162031  0.15866699     0.09800
Cu184      Cu  0.54569715  0.60894623  0.17292622     0.44200
Cu185      Cu  0.56401639  0.57523039  0.15155935     0.42000
Cu186      Cu  0.47634659  0.58291029  0.12709153     0.43900
N187        N  0.49528483  0.61221998  0.16042229    -0.33800
N188        N  0.46985406  0.60317528  0.14198276    -0.28100
C189        C  0.43972587  0.60978314  0.12874703    -0.04200
C190        C  0.44656883  0.62359461  0.13932689     0.08100
C191        C  0.48205819  0.62467706  0.15995492     0.01900
H192        H  0.41472317  0.60518546  0.10842644     0.09500
H193        H  0.49694420  0.63411388  0.16860331     0.08600
N194        N  0.49178295  0.56396523  0.11358027    -0.35200
N195        N  0.52402967  0.56139686  0.12275960    -0.27400
C196        C  0.52620004  0.54862158  0.10923440    -0.02700
C197        C  0.49385049  0.54268323  0.09103256     0.05900
C198        C  0.47252655  0.55272162  0.09419186     0.04000
H199        H  0.54967991  0.54403277  0.11217599     0.09100
H200        H  0.44514951  0.55189148  0.08344409     0.08000
N201        N  0.06049106  0.38464614  0.05529226    -0.26400
N202        N  0.07177378  0.39728520  0.05548213    -0.34300
C203        C  0.10071413  0.39675416  0.05092667     0.01900
C204        C  0.10833682  0.38313486  0.04776012     0.08000
C205        C  0.08220304  0.37570430  0.05065621    -0.05100
H206        H  0.11446129  0.40569397  0.04818824     0.08600
H207        H  0.07870562  0.36466320  0.04839956     0.09800
Cu208      Cu  0.04644263  0.41493482  0.05792953     0.44200
Cu209      Cu  0.01425452  0.38057961  0.05703391     0.42000
Cu210      Cu  0.96520239  0.41087292  0.05885973     0.43900
N211        N  0.01624572  0.43137141  0.05700822    -0.33800
N212        N  0.98628208  0.42991433  0.05739956    -0.28100
C213        C  0.97261936  0.44241955  0.05541094    -0.04200
C214        C  0.99513718  0.45221594  0.05375167     0.08100
C215        C  0.02252795  0.44482109  0.05484424     0.01900
H216        H  0.94789436  0.44423913  0.05458281     0.09500
H217        H  0.04534578  0.44890792  0.05408376     0.08600
N218        N  0.94743947  0.39078794  0.05336161    -0.35200
N219        N  0.96500693  0.37985905  0.05229652    -0.27400
C220        C  0.94434577  0.36874752  0.04211496    -0.02700
C221        C  0.91219568  0.37282972  0.03628994     0.05900
C222        C  0.91526201  0.38687844  0.04407397     0.04000
H223        H  0.95134673  0.35861183  0.03578809     0.09100
H224        H  0.89495474  0.39390477  0.04024864     0.08000
N225        N  0.33412482  0.38310942  0.93207886    -0.26400
N226        N  0.32642690  0.39606907  0.93521423    -0.34300
C227        C  0.29873748  0.39646774  0.94268346     0.01900
C228        C  0.28811362  0.38314032  0.94413645     0.08000
C229        C  0.31117555  0.37491760  0.93714883    -0.05100
H230        H  0.28803020  0.40580436  0.94865116     0.08600
H231        H  0.31182020  0.36380092  0.93694500     0.09800
Cu232      Cu  0.35534527  0.41283367  0.93414124     0.44200
Cu233      Cu  0.37758315  0.37731453  0.92557577     0.42000
Cu234      Cu  0.43383142  0.40579868  0.93018411     0.43900
N235        N  0.39166748  0.42781014  0.94302522    -0.33800
N236        N  0.42113858  0.42512804  0.94261806    -0.28100
C237        C  0.44126252  0.43640161  0.95556725    -0.04200
C238        C  0.42351256  0.44671897  0.96450197     0.08100
C239        C  0.39203084  0.44092269  0.95581008     0.01900
H240        H  0.46755655  0.43679994  0.96056447     0.09500
H241        H  0.37156751  0.44566925  0.96060786     0.08600
N242        N  0.44422945  0.38546657  0.92473778    -0.35200
N243        N  0.42429645  0.37501503  0.92340545    -0.27400
C244        C  0.44055266  0.36322872  0.92392095    -0.02700
C245        C  0.47208358  0.36650887  0.92575416     0.05900
C246        C  0.47350809  0.38066922  0.92621369     0.04000
H247        H  0.43096980  0.35305213  0.92524731     0.09100
H248        H  0.49494175  0.38703094  0.92954098     0.08000
C249        C  0.19486993  0.38198316  0.04694518    -0.04600
C250        C  0.18689645  0.37404876  0.00810129     0.09600
C251        C  0.15495377  0.36713262  0.98678995    -0.02000
C252        C  0.12959443  0.36935233  0.00123829    -0.00200
C253        C  0.13655521  0.37825176  0.03797815    -0.03900
C254        C  0.17002187  0.38388436  0.06227840     0.03200
C255        C  0.21055943  0.37445879  0.98691744     0.10000
C256        C  0.14784716  0.35815593  0.94889210     0.35900
C257        C  0.17887951  0.39179502  0.10292434     0.39300
C258        C  0.24149320  0.36694390  0.00527863    -0.04200
C259        C  0.26640085  0.36925237  0.99006106     0.02900
C260        C  0.26021232  0.37900324  0.95579855    -0.03800
C261        C  0.22798800  0.38574232  0.93524244     0.00000
C262        C  0.20343129  0.38354515  0.95096850    -0.02600
C263        C  0.24805836  0.35716281  0.04090516     0.36600
C264        C  0.21996043  0.39503074  0.89791403     0.40300
C265        C  0.29913661  0.36219636  0.01186432     0.39400
C266        C  0.17119147  0.39103861  0.93124088     0.36300
C267        C  0.22816271  0.38875112  0.06988559     0.37000
C268        C  0.09574553  0.36322336  0.97617454     0.40200
N269        N  0.32522344  0.35653616  0.02941578    -0.37800
N270        N  0.25325328  0.34936038  0.06932556    -0.39400
N271        N  0.21344934  0.40247277  0.86820507    -0.37100
N272        N  0.14542669  0.39696655  0.91560415    -0.39500
N273        N  0.14228794  0.35095609  0.91876570    -0.39300
N274        N  0.06875834  0.35831575  0.95598548    -0.36900
N275        N  0.18601595  0.39808078  0.13539661    -0.38000
N276        N  0.25473263  0.39413592  0.08806590    -0.39700
C277        C  0.44862641  0.51258444  0.01271446    -0.04600
C278        C  0.46888687  0.50143452  0.03767612     0.09600
C279        C  0.49737944  0.50382284  0.07986388    -0.02000
C280        C  0.50492189  0.51723509  0.09776166    -0.00200
C281        C  0.48475681  0.52847336  0.07278333    -0.03900
C282        C  0.45675067  0.52608235  0.02992153     0.03200
C283        C  0.45917900  0.48708140  0.02036952     0.10000
C284        C  0.51891000  0.49242358  0.10491605     0.35900
C285        C  0.43690440  0.53749936  0.00269583     0.39300
C286        C  0.46468118  0.48233697  0.98431721    -0.04200
C287        C  0.45324006  0.46911718  0.96609975     0.02900
C288        C  0.43693420  0.46044127  0.98461399    -0.03800
C289        C  0.43334150  0.46495428  0.02247386     0.00000
C290        C  0.44380193  0.47830993  0.03966518    -0.02600
C291        C  0.48198362  0.49112501  0.96587317     0.36600
C292        C  0.42011045  0.45572439  0.04503722     0.40300
C293        C  0.45736288  0.46467422  0.92744518     0.39400
C294        C  0.43850560  0.48309109  0.07714053     0.36300
C295        C  0.41931566  0.51011897  0.96926298     0.37000
C296        C  0.53271671  0.51932132  0.14270818     0.40200
N297        N  0.46073358  0.46115501  0.89664487    -0.37800
N298        N  0.49577031  0.49815033  0.95118205    -0.39400
N299        N  0.40971967  0.44836468  0.06321571    -0.37100
N300        N  0.43442597  0.48689987  0.10712809    -0.39500
N301        N  0.53605812  0.48333193  0.12489407    -0.39300
N302        N  0.55484579  0.52096489  0.17858948    -0.36900
N303        N  0.42103450  0.54656575  0.98073979    -0.38000
N304        N  0.39607209  0.50808944  0.93454818    -0.39700
C305        C  0.97791284  0.48878765  0.07904697    -0.04600
C306        C  0.98082758  0.49622767  0.04481213     0.09600
C307        C  0.98919886  0.48930876  0.01409374    -0.02000
C308        C  0.99404779  0.47494311  0.01704156    -0.00200
C309        C  0.99068439  0.46740518  0.05099150    -0.03900
C310        C  0.98281114  0.47443204  0.08217374     0.03200
C311        C  0.97327538  0.51128249  0.03974217     0.10000
C312        C  0.99227260  0.49700918  0.97900900     0.35900
C313        C  0.98038897  0.46696479  0.11811780     0.39300
C314        C  0.99915500  0.52095941  0.06480775    -0.04200
C315        C  0.99145012  0.53512643  0.06107193     0.02900
C316        C  0.95755548  0.53963797  0.03301612    -0.03800
C317        C  0.93192931  0.52992812  0.00708744     0.00000
C318        C  0.93984835  0.51581436  0.01026299    -0.02600
C319        C  0.03351542  0.51627225  0.09510935     0.36600
C320        C  0.89748776  0.53446659  0.97645180     0.40300
C321        C  0.01816701  0.54498534  0.08727708     0.39400
C322        C  0.91353181  0.50587717  0.98349338     0.36300
C323        C  0.96958340  0.49594137  0.11087037     0.37000
C324        C  0.00097643  0.46789975  0.98381505     0.40200
N325        N  0.03954238  0.55285246  0.10803304    -0.37800
N326        N  0.06087603  0.51250925  0.11943643    -0.39400
N327        N  0.87001461  0.53807116  0.95194923    -0.37100
N328        N  0.89268325  0.49790808  0.96210614    -0.39500
N329        N  0.99465722  0.50319404  0.95104821    -0.39300
N330        N  0.00643371  0.46231519  0.95718965    -0.36900
N331        N  0.97840165  0.46100462  0.14674720    -0.38000
N332        N  0.96298893  0.50166442  0.13627433    -0.39700
C333        C  0.70498389  0.60602124  0.12096373    -0.04600
C334        C  0.73000638  0.61510391  0.15144193     0.09600
C335        C  0.72472378  0.62140713  0.18571201    -0.02000
C336        C  0.69502092  0.61820068  0.19061643    -0.00200
C337        C  0.67044813  0.60868958  0.16103350    -0.03900
C338        C  0.67505396  0.60302141  0.12513291     0.03200
C339        C  0.76219299  0.61752290  0.14725483     0.10000
C340        C  0.75018501  0.63098941  0.21628632     0.35900
C341        C  0.64865694  0.59438424  0.09143210     0.39300
C342        C  0.76151212  0.62623372  0.11328594    -0.04200
C343        C  0.78795146  0.62553232  0.10022431     0.02900
C344        C  0.81563265  0.61626393  0.12196031    -0.03800
C345        C  0.81823009  0.60885315  0.15975220     0.00000
C346        C  0.79130564  0.60932369  0.17188402    -0.02600
C347        C  0.73246980  0.63533929  0.09014406     0.36600
C348        C  0.84848401  0.60064646  0.18608933     0.40300
C349        C  0.78504541  0.63364918  0.06237148     0.39400
C350        C  0.79260196  0.60080206  0.20814942     0.36300
C351        C  0.71049179  0.59951148  0.08568933     0.37000
C352        C  0.69043971  0.62437727  0.22696460     0.40200
N353        N  0.78250563  0.64018444  0.03215608    -0.37800
N354        N  0.70928647  0.64260280  0.07182828    -0.39400
N355        N  0.87263589  0.59412463  0.20721987    -0.37100
N356        N  0.79353638  0.59400693  0.23702657    -0.39500
N357        N  0.77053948  0.63862880  0.24070352    -0.39300
N358        N  0.68675777  0.62936587  0.25588290    -0.36900
N359        N  0.62772238  0.58749733  0.06442504    -0.38000
N360        N  0.71507825  0.59432645  0.05775160    -0.39700
C361        C  0.20567340  0.78798999  0.56907251    -0.04600
C362        C  0.18927821  0.78286620  0.52468842     0.09600
C363        C  0.15691876  0.77638681  0.50881783    -0.02000
C364        C  0.14045628  0.77551430  0.53653311    -0.00200
C365        C  0.15568726  0.78144590  0.58002640    -0.03900
C366        C  0.18911016  0.78721244  0.59676391     0.03200
C367        C  0.20569115  0.78487046  0.49428250     0.10000
C368        C  0.14049669  0.77067158  0.46376673     0.35900
C369        C  0.20659819  0.79262515  0.64198879     0.39300
C370        C  0.22480805  0.77426806  0.48754769    -0.04200
C371        C  0.24330513  0.77678975  0.46284390     0.02900
C372        C  0.24308373  0.79000961  0.44505145    -0.03800
C373        C  0.22175703  0.80026511  0.44922401     0.00000
C374        C  0.20325232  0.79770763  0.47371027    -0.02600
C375        C  0.22642383  0.76090653  0.50756984     0.36600
C376        C  0.21808932  0.81345060  0.42762900     0.40300
C377        C  0.26455474  0.76600597  0.45904820     0.39400
C378        C  0.18198400  0.80837863  0.47849821     0.36300
C379        C  0.23954815  0.79426584  0.58592996     0.37000
C380        C  0.10906312  0.76754332  0.52135389     0.40200
N381        N  0.28147381  0.75712924  0.45732316    -0.37800
N382        N  0.22758522  0.75025075  0.52351517    -0.39400
N383        N  0.21373628  0.82399401  0.40997201    -0.37100
N384        N  0.16497135  0.81682762  0.48248025    -0.39500
N385        N  0.12744065  0.76608858  0.42785301    -0.39300
N386        N  0.08472819  0.76067048  0.50875583    -0.36900
N387        N  0.22162042  0.79717835  0.67775860    -0.38000
N388        N  0.26652347  0.79928476  0.59916744    -0.39700
C389        C  0.32150043  0.66017695  0.00046317    -0.04600
C390        C  0.34658738  0.66540008  0.04178375     0.09600
C391        C  0.35036124  0.67971330  0.04899667    -0.02000
C392        C  0.33171925  0.68881079  0.01328970    -0.00200
C393        C  0.30924355  0.68353750  0.97026846    -0.03900
C394        C  0.30349914  0.66915573  0.96447439     0.03200
C395        C  0.37426268  0.65595054  0.07202834     0.10000
C396        C  0.37592319  0.68498268  0.09197318     0.35900
C397        C  0.28211856  0.66338890  0.92024958     0.39300
C398        C  0.40315682  0.65406723  0.06431182    -0.04200
C399        C  0.42678819  0.64355041  0.08648228     0.02900
C400        C  0.42224634  0.63503881  0.11763566    -0.03800
C401        C  0.39388229  0.63721245  0.12641594     0.00000
C402        C  0.36990049  0.64768153  0.10359542    -0.02600
C403        C  0.40776028  0.66264653  0.03193841     0.36600
C404        C  0.38922030  0.62861015  0.15855536     0.40300
C405        C  0.45447394  0.64097768  0.07479992     0.39400
C406        C  0.34039341  0.64982665  0.11175098     0.36300
C407        C  0.31693502  0.64541249  0.99368761     0.37000
C408        C  0.33958808  0.70337159  0.01968935     0.40200
N409        N  0.47642592  0.63890059  0.06530118    -0.37800
N410        N  0.41136829  0.66950892  0.00617452    -0.39400
N411        N  0.38543756  0.62174370  0.18417523    -0.37100
N412        N  0.31680719  0.65159994  0.11817133    -0.39500
N413        N  0.39644141  0.68917768  0.12619279    -0.39300
N414        N  0.34690244  0.71489841  0.02592138    -0.36900
N415        N  0.26550427  0.65869626  0.88501449    -0.38000
N416        N  0.31345009  0.63363952  0.98842047    -0.39700
C417        C  0.27309594  0.74001399  0.81096435    -0.04600
C418        C  0.23726899  0.74079900  0.78415621     0.09600
C419        C  0.21517420  0.73215763  0.79333974    -0.02000
C420        C  0.22891068  0.72215845  0.82745602    -0.00200
C421        C  0.26491356  0.72098304  0.85341457    -0.03900
C422        C  0.28687441  0.73028612  0.84580466     0.03200
C423        C  0.22216209  0.75089040  0.74656416     0.10000
C424        C  0.17814561  0.73330679  0.76647822     0.35900
C425        C  0.32397051  0.72955156  0.87299097     0.39300
C426        C  0.20878881  0.74638026  0.70158932    -0.04200
C427        C  0.18607127  0.75484786  0.66632248     0.02900
C428        C  0.17706185  0.76788146  0.67618976    -0.03800
C429        C  0.19411243  0.77297356  0.72084708     0.00000
C430        C  0.21684564  0.76452987  0.75580946    -0.02600
C431        C  0.21698004  0.73271792  0.69203635     0.36600
C432        C  0.18608874  0.78655234  0.73148086     0.40300
C433        C  0.16979112  0.74955821  0.62081358     0.39400
C434        C  0.23308694  0.76955190  0.80175487     0.36300
C435        C  0.29578821  0.74888231  0.80153514     0.37000
C436        C  0.20582537  0.71252923  0.83310944     0.40200
N437        N  0.15727458  0.74501225  0.58485438    -0.37800
N438        N  0.22362779  0.72182921  0.68445197    -0.39400
N439        N  0.17963905  0.79736283  0.73994217    -0.37100
N440        N  0.24630862  0.77353463  0.83842075    -0.39500
N441        N  0.14865960  0.73426130  0.74484074    -0.39300
N442        N  0.18651638  0.70500554  0.83639252    -0.36900
N443        N  0.35351883  0.72895209  0.89470664    -0.38000
N444        N  0.31387548  0.75593054  0.79390323    -0.39700
C445        C  0.02673278  0.66399740  0.96769391    -0.04600
C446        C  0.03746732  0.67396275  0.00210649     0.09600
C447        C  0.02744247  0.67271639  0.03653091    -0.02000
C448        C  0.00748401  0.66142625  0.03719715    -0.00200
C449        C  0.99623480  0.65146108  0.00245093    -0.03900
C450        C  0.00589556  0.65282352  0.96761036     0.03200
C451        C  0.05963743  0.68589998  0.00353773     0.10000
C452        C  0.03783098  0.68312658  0.07156779     0.35900
C453        C  0.99360402  0.64297151  0.93096559     0.39300
C454        C  0.04442948  0.69781305  0.97874046    -0.04200
C455        C  0.06176331  0.71056211  0.99185453     0.02900
C456        C  0.09412093  0.71150337  0.03078901    -0.03800
C457        C  0.11069365  0.69919308  0.05240764     0.00000
C458        C  0.09391956  0.68641014  0.03749588    -0.02600
C459        C  0.00979153  0.69710516  0.94195868     0.36600
C460        C  0.14222592  0.69946796  0.09417715     0.40300
C461        C  0.04458441  0.72282611  0.96742772     0.39400
C462        C  0.11044612  0.67381484  0.06026009     0.36300
C463        C  0.03717853  0.66527474  0.93251785     0.37000
C464        C  0.99980108  0.65989353  0.07484070     0.40200
N465        N  0.03016235  0.73248817  0.94782274    -0.37800
N466        N  0.98218993  0.69650905  0.91256672    -0.39400
N467        N  0.16675902  0.69887425  0.12827252    -0.37100
N468        N  0.12353425  0.66376579  0.07836818    -0.39500
N469        N  0.04623097  0.69142828  0.09943565    -0.39300
N470        N  0.99377075  0.65873228  0.10494153    -0.36900
N471        N  0.98370754  0.63513047  0.90164453    -0.38000
N472        N  0.04549930  0.66633037  0.90442079    -0.39700
C473        C  0.20737438  0.76079857  0.19716436    -0.04600
C474        C  0.20416996  0.75496807  0.23376917     0.09600
C475        C  0.18436396  0.74295990  0.22722660    -0.02000
C476        C  0.16559452  0.73743506  0.18376387    -0.00200
C477        C  0.16614460  0.74402254  0.14629214    -0.03900
C478        C  0.18812038  0.75539326  0.15336482     0.03200
C479        C  0.21943539  0.76205513  0.27850163     0.10000
C480        C  0.18198011  0.73670935  0.26504328     0.35900
C481        C  0.18961604  0.76186035  0.11533051     0.39300
C482        C  0.20056988  0.77231993  0.28735617    -0.04200
C483        C  0.21587954  0.77998230  0.32776194     0.02900
C484        C  0.25023269  0.77735452  0.35979326    -0.03800
C485        C  0.26799268  0.76624717  0.35210581     0.00000
C486        C  0.25261747  0.75865926  0.31168643    -0.02600
C487        C  0.16578424  0.77539902  0.25370518     0.36600
C488        C  0.30316441  0.76316486  0.38459482     0.40300
C489        C  0.19691996  0.79126615  0.33388628     0.39400
C490        C  0.27147516  0.74773184  0.30326579     0.36300
C491        C  0.22958292  0.77264153  0.20451434     0.37000
C492        C  0.14391657  0.72543726  0.17730473     0.40200
N493        N  0.18056901  0.80015412  0.33691090    -0.37800
N494        N  0.13807541  0.77783078  0.22673658    -0.39400
N495        N  0.33123969  0.76073317  0.41039633    -0.37100
N496        N  0.28647071  0.73901825  0.29644033    -0.39500
N497        N  0.18008047  0.73177412  0.29527158    -0.39300
N498        N  0.12641682  0.71595456  0.17228363    -0.36900
N499        N  0.19075650  0.76698120  0.08485453    -0.38000
N500        N  0.24746882  0.78206003  0.21057849    -0.39700
C501        C  0.21883637  0.70434362  0.97057559    -0.04600
C502        C  0.22482346  0.71758484  0.98979866     0.09600
C503        C  0.24744929  0.72659035  0.98305990    -0.02000
C504        C  0.26481417  0.72222698  0.95839526    -0.00200
C505        C  0.25936243  0.70882149  0.93972300    -0.03900
C506        C  0.23532481  0.70011309  0.94489356     0.03200
C507        C  0.20492223  0.72230624  0.01393635     0.10000
C508        C  0.25273973  0.74038268  0.00158460     0.35900
C509        C  0.22514742  0.68719463  0.92079492     0.39300
C510        C  0.21754623  0.72015163  0.06049997    -0.04200
C511        C  0.19696294  0.72340649  0.08192768     0.02900
C512        C  0.16312141  0.72844064  0.05650541    -0.03800
C513        C  0.15234453  0.73197080  0.01097305     0.00000
C514        C  0.17262984  0.72857240  0.98956065    -0.02600
C515        C  0.25157396  0.71437759  0.08610823     0.36600
C516        C  0.12129732  0.73990648  0.98674843     0.40300
C517        C  0.21118623  0.72184213  0.13004530     0.39400
C518        C  0.16004205  0.73130925  0.94205356     0.36300
C519        C  0.19513975  0.69511669  0.97676834     0.37000
C520        C  0.28878272  0.73151638  0.95340829     0.40200
N521        N  0.22338453  0.72059483  0.16864195    -0.37800
N522        N  0.27875385  0.70976830  0.10644990    -0.39400
N523        N  0.09702504  0.74653268  0.96729490    -0.37100
N524        N  0.15009381  0.73341871  0.90414249    -0.39500
N525        N  0.25680428  0.75139336  0.01633417    -0.39300
N526        N  0.30790829  0.73919362  0.95035008    -0.36900
N527        N  0.21533309  0.67703233  0.90091177    -0.38000
N528        N  0.17630799  0.68778173  0.98190705    -0.39700
C529        C  0.21125035  0.11205714  0.54573403    -0.04600
C530        C  0.21464767  0.10156349  0.51888395     0.09600
C531        C  0.18975795  0.09097834  0.50212129    -0.02000
C532        C  0.16222861  0.09062045  0.51321635    -0.00200
C533        C  0.15943103  0.10082509  0.54164541    -0.03900
C534        C  0.18375957  0.11170822  0.55710521     0.03200
C535        C  0.24551010  0.10108469  0.51030470     0.10000
C536        C  0.19281501  0.08031431  0.47380284     0.35900
C537        C  0.18151043  0.12222835  0.58637406     0.39300
C538        C  0.27393811  0.09288221  0.53778646    -0.04200
C539        C  0.30195138  0.09143066  0.52798130     0.02900
C540        C  0.30186149  0.09821387  0.49053762    -0.03800
C541        C  0.27382269  0.10674640  0.46378817     0.00000
C542        C  0.24570043  0.10814991  0.47360619    -0.02600
C543        C  0.27403445  0.08575389  0.57588935     0.36600
C544        C  0.27314987  0.11356644  0.42492833     0.40300
C545        C  0.33098432  0.08297012  0.55672637     0.39400
C546        C  0.21649007  0.11657522  0.44534313     0.36300
C547        C  0.23660776  0.12303334  0.56248647     0.37000
C548        C  0.13647300  0.07981394  0.49454682     0.40200
N549        N  0.35408804  0.07619097  0.57960233    -0.37800
N550        N  0.27399966  0.08007337  0.60621741    -0.39400
N551        N  0.27256273  0.11897173  0.39381624    -0.37100
N552        N  0.19311638  0.12328948  0.42285552    -0.39500
N553        N  0.19530599  0.07180539  0.45127316    -0.39300
N554        N  0.11599679  0.07117096  0.47971291    -0.36900
N555        N  0.17978269  0.13063334  0.60976459    -0.38000
N556        N  0.25688057  0.13178629  0.57574382    -0.39700
C557        C  0.49014464  0.96782757  0.58202645    -0.04600
C558        C  0.49984415  0.98051100  0.60500907     0.09600
C559        C  0.51772411  0.98075950  0.65236662    -0.02000
C560        C  0.52465538  0.96841958  0.67676878    -0.00200
C561        C  0.51411236  0.95572459  0.65392152    -0.03900
C562        C  0.49747110  0.95543651  0.60641351     0.03200
C563        C  0.48950008  0.99374718  0.57991102     0.10000
C564        C  0.52844549  0.99379555  0.67598247     0.35900
C565        C  0.48867159  0.94240457  0.58255266     0.39300
C566        C  0.46227707  0.00135437  0.58047614    -0.04200
C567        C  0.45485528  0.01460859  0.56176492     0.02900
C568        C  0.47387594  0.02017486  0.54078956    -0.03800
C569        C  0.50019117  0.01226779  0.53855395     0.00000
C570        C  0.50812212  0.99911935  0.55835021    -0.02600
C571        C  0.44232359  0.99558628  0.60126067     0.36600
C572        C  0.51894156  0.01758451  0.51555172     0.40300
C573        C  0.42899654  0.02275292  0.56671316     0.39400
C574        C  0.53575402  0.99117650  0.55717052     0.36300
C575        C  0.47227807  0.96756873  0.53333322     0.37000
C576        C  0.54144161  0.96885510  0.72548138     0.40200
N577        N  0.40845377  0.02922554  0.57091967    -0.37800
N578        N  0.42649254  0.99095175  0.61786892    -0.39400
N579        N  0.53390881  0.02180553  0.49717949    -0.37100
N580        N  0.55769605  0.98479313  0.55611833    -0.39500
N581        N  0.53686679  0.00421090  0.69470953    -0.39300
N582        N  0.55477220  0.96918977  0.76433056    -0.36900
N583        N  0.48177013  0.93201678  0.56346712    -0.38000
N584        N  0.45814215  0.96737670  0.49447902    -0.39700
C585        C  0.40089578  0.83717739  0.59563841    -0.04600
C586        C  0.36866277  0.83745806  0.59587320     0.09600
C587        C  0.36409186  0.84571311  0.62729014    -0.02000
C588        C  0.39162245  0.85386947  0.65808918    -0.00200
C589        C  0.42387782  0.85377670  0.65752936    -0.03900
C590        C  0.42834992  0.84533265  0.62609269     0.03200
C591        C  0.33939675  0.82956997  0.56059162     0.10000
C592        C  0.33083534  0.84600095  0.62711975     0.35900
C593        C  0.46034658  0.84562328  0.62272223     0.39300
C594        C  0.33499410  0.81555992  0.56728053    -0.04200
C595        C  0.31636021  0.80687112  0.53004470     0.02900
C596        C  0.30134705  0.81233371  0.48606542    -0.03800
C597        C  0.30247830  0.82673802  0.48032058     0.00000
C598        C  0.32132357  0.83531046  0.51753030    -0.02600
C599        C  0.35217371  0.80993573  0.61227254     0.36600
C600        C  0.28711975  0.83263507  0.43559892     0.40300
C601        C  0.31669345  0.79219181  0.53723084     0.39400
C602        C  0.32484468  0.84987709  0.51109615     0.36300
C603        C  0.40536045  0.82881799  0.56267300     0.37000
C604        C  0.38664469  0.86241358  0.69017524     0.40200
N605        N  0.31797427  0.78053698  0.54462034    -0.37800
N606        N  0.36587057  0.80550438  0.64824302    -0.39400
N607        N  0.27507086  0.83735870  0.39998772    -0.37100
N608        N  0.32780469  0.86148090  0.50601397    -0.39500
N609        N  0.30423291  0.84621661  0.62684143    -0.39300
N610        N  0.38261785  0.86927059  0.71565787    -0.36900
N611        N  0.48576107  0.84582766  0.61979175    -0.38000
N612        N  0.40874586  0.82219502  0.53621979    -0.39700
C613        C  0.93408701  0.98162834  0.57318639    -0.04600
C614        C  0.94560680  0.98769325  0.54417367     0.09600
C615        C  0.94437827  0.98011169  0.50750036    -0.02000
C616        C  0.93144899  0.96654409  0.49965633    -0.00200
C617        C  0.92031442  0.96036946  0.52904146    -0.03900
C618        C  0.92197316  0.96795381  0.56610448     0.03200
C619        C  0.95929533  0.00208027  0.55263175     0.10000
C620        C  0.95647590  0.98629999  0.47784839     0.35900
C621        C  0.91259082  0.96157476  0.59816203     0.39300
C622        C  0.99210537  0.00489020  0.58844373    -0.04200
C623        C  0.00428069  0.01853879  0.59812890     0.02900
C624        C  0.98429756  0.02943345  0.57086176    -0.03800
C625        C  0.95192856  0.02651308  0.53393327     0.00000
C626        C  0.93919888  0.01291875  0.52548421    -0.02600
C627        C  0.01333670  0.99367947  0.61529106     0.36600
C628        C  0.93218238  0.03735944  0.50343280     0.40300
C629        C  0.03682541  0.02137356  0.63723301     0.39400
C630        C  0.90529318  0.01005448  0.48893518     0.36300
C631        C  0.93471078  0.98951459  0.61040151     0.37000
C632        C  0.92871295  0.95911320  0.46053036     0.40200
N633        N  0.06270358  0.02361912  0.66858292    -0.37800
N634        N  0.03021577  0.98470755  0.63656538    -0.39400
N635        N  0.91643997  0.04596454  0.47886413    -0.37100
N636        N  0.87827869  0.00773417  0.45979421    -0.39500
N637        N  0.96602765  0.99125916  0.45412747    -0.39300
N638        N  0.92648889  0.95319333  0.42928921    -0.36900
N639        N  0.90524629  0.95650904  0.62388868    -0.38000
N640        N  0.93527216  0.99582570  0.64006751    -0.39700
C641        C  0.72066863  0.87383902  0.59960230    -0.04600
C642        C  0.72942473  0.88127945  0.63956581     0.09600
C643        C  0.75806538  0.89023441  0.65637418    -0.02000
C644        C  0.77733963  0.89208318  0.63263253    -0.00200
C645        C  0.76778256  0.88508329  0.59149317    -0.03900
C646        C  0.73964547  0.87580130  0.57539569     0.03200
C647        C  0.70650952  0.88094516  0.66167937     0.10000
C648        C  0.76707656  0.89782609  0.69765596     0.35900
C649        C  0.72895047  0.86887133  0.53265834     0.39300
C650        C  0.71319056  0.87193386  0.69766425    -0.04200
C651        C  0.69378728  0.87288891  0.72166611     0.02900
C652        C  0.66774798  0.88289541  0.70977130    -0.03800
C653        C  0.66015423  0.89150967  0.67235081     0.00000
C654        C  0.67953644  0.89052625  0.64851254    -0.02600
C655        C  0.74039974  0.86186125  0.71031703     0.36600
C656        C  0.63217145  0.90132668  0.65782589     0.40300
C657        C  0.70142198  0.86392398  0.75958681     0.39400
C658        C  0.67215117  0.89953908  0.61069005     0.36300
C659        C  0.69155803  0.86444746  0.58291534     0.37000
C660        C  0.80715240  0.90113954  0.65092691     0.40200
N661        N  0.70749534  0.85679435  0.78990651    -0.37800
N662        N  0.76208226  0.85380433  0.72030970    -0.39400
N663        N  0.60998083  0.90920803  0.64623824    -0.37100
N664        N  0.66634736  0.90668618  0.58048859    -0.39500
N665        N  0.77408155  0.90387135  0.73052875    -0.39300
N666        N  0.83086446  0.90839551  0.66561281    -0.36900
N667        N  0.72031051  0.86341282  0.49841934    -0.38000
N668        N  0.66837424  0.85692738  0.56970720    -0.39700
C669        C  0.02916218  0.80586552  0.50630119    -0.04600
C670        C  0.04077319  0.81949413  0.51778172     0.09600
C671        C  0.07618226  0.82214497  0.54396823    -0.02000
C672        C  0.09922262  0.81115161  0.56379090    -0.00200
C673        C  0.08659315  0.79748282  0.55831672    -0.03900
C674        C  0.05159153  0.79488526  0.52771946     0.03200
C675        C  0.01514531  0.83046333  0.51181428     0.10000
C676        C  0.08826156  0.83625598  0.55402921     0.35900
C677        C  0.03719847  0.78115760  0.52290536     0.39300
C678        C  0.00026236  0.83083027  0.54144236    -0.04200
C679        C  0.97582808  0.84092931  0.53664557     0.02900
C680        C  0.96592127  0.85079201  0.50197481    -0.03800
C681        C  0.98118859  0.85049363  0.47261514     0.00000
C682        C  0.00579059  0.84036117  0.47764106    -0.02600
C683        C  0.01068139  0.82088920  0.57760735     0.36600
C684        C  0.97112938  0.86041999  0.43658797     0.40300
C685        C  0.96218323  0.84144806  0.56886881     0.39400
C686        C  0.02163784  0.84011314  0.44788143     0.36300
C687        C  0.99315156  0.80323858  0.47589695     0.37000
C688        C  0.13471696  0.81430821  0.59459194     0.40200
N689        N  0.95139135  0.84180659  0.59465644    -0.37800
N690        N  0.01904470  0.81294777  0.60634984    -0.39400
N691        N  0.96316791  0.86835060  0.40786794    -0.37100
N692        N  0.03448883  0.83994165  0.42434914    -0.39500
N693        N  0.09782246  0.84751675  0.56206135    -0.39300
N694        N  0.16264279  0.81752482  0.61897732    -0.36900
N695        N  0.02497921  0.77035873  0.51937108    -0.38000
N696        N  0.96443863  0.80118549  0.45155969    -0.39700
C697        C  0.86311746  0.14856161  0.51305895    -0.04600
C698        C  0.84707365  0.14754063  0.46581895     0.09600
C699        C  0.86190080  0.13930241  0.44450275    -0.02000
C700        C  0.89293623  0.13232533  0.47015351    -0.00200
C701        C  0.90949559  0.13354732  0.51740109    -0.03900
C702        C  0.89430274  0.14153961  0.53887254     0.03200
C703        C  0.81604126  0.15587699  0.43728167     0.10000
C704        C  0.84524573  0.13813703  0.39587920     0.35900
C705        C  0.91105000  0.14269848  0.58740704     0.39300
C706        C  0.82080190  0.16881735  0.42216373    -0.04200
C707        C  0.79394976  0.17479597  0.38401517     0.02900
C708        C  0.76131908  0.16828879  0.36251383    -0.03800
C709        C  0.75569905  0.15594678  0.38052983     0.00000
C710        C  0.78305467  0.14976361  0.41787653    -0.02600
C711        C  0.85427004  0.17549810  0.44415724     0.36600
C712        C  0.72252102  0.14908513  0.35896691     0.40300
C713        C  0.80180246  0.18653543  0.36367743     0.39400
C714        C  0.77788875  0.13673863  0.43497276     0.36300
C715        C  0.84755037  0.15688002  0.53482119     0.37000
C716        C  0.90757260  0.12370070  0.44785958     0.40200
N717        N  0.80940673  0.19564436  0.34781092    -0.37800
N718        N  0.88092076  0.18083577  0.46197468    -0.39400
N719        N  0.69628788  0.14340651  0.34193814    -0.37100
N720        N  0.77377928  0.12635599  0.44871136    -0.39500
N721        N  0.83181892  0.13724395  0.35711615    -0.39300
N722        N  0.91923883  0.11680493  0.43012265    -0.36900
N723        N  0.92444717  0.14364785  0.62615729    -0.38000
N724        N  0.83499353  0.16350523  0.55206714    -0.39700
C725        C  0.66160624  0.15631269  0.59995389    -0.04600
C726        C  0.64897872  0.15167345  0.55529854     0.09600
C727        C  0.66614707  0.15563701  0.53015865    -0.02000
C728        C  0.69488125  0.16466817  0.54899442    -0.00200
C729        C  0.70560024  0.17037331  0.59234206    -0.03900
C730        C  0.68941720  0.16563550  0.61832304     0.03200
C731        C  0.61736217  0.14268508  0.53568592     0.10000
C732        C  0.65432818  0.15034053  0.48496490     0.35900
C733        C  0.70114305  0.17014649  0.66441063     0.39300
C734        C  0.58546570  0.14819817  0.52863240    -0.04200
C735        C  0.55758253  0.13942697  0.52164344     0.02900
C736        C  0.55987730  0.12502091  0.51628400    -0.03800
C737        C  0.59085074  0.11980464  0.51778845     0.00000
C738        C  0.61988641  0.12845885  0.52989505    -0.02600
C739        C  0.58193287  0.16299402  0.53050459     0.36600
C740        C  0.59320049  0.10560817  0.50620446     0.40300
C741        C  0.52796560  0.14536374  0.52378973     0.39400
C742        C  0.65282912  0.12261857  0.53830028     0.36300
C743        C  0.64574057  0.15144299  0.62721471     0.37000
C744        C  0.71489873  0.16697116  0.52506080     0.40200
N745        N  0.50471844  0.15029226  0.52607675    -0.37800
N746        N  0.57924342  0.17479682  0.53179748    -0.39400
N747        N  0.59542766  0.09431626  0.49690663    -0.37100
N748        N  0.67916640  0.11797504  0.54525669    -0.39500
N749        N  0.64503209  0.14602866  0.44901863    -0.39300
N750        N  0.73067842  0.16813994  0.50532949    -0.36900
N751        N  0.71041512  0.17358225  0.70128353    -0.38000
N752        N  0.63299570  0.14757011  0.64878816    -0.39700
C753        C  0.74846472  0.19889485  0.50205840    -0.04600
C754        C  0.71663350  0.20330572  0.46734449     0.09600
C755        C  0.69000961  0.20709706  0.47815791    -0.02000
C756        C  0.69345839  0.20460984  0.52172129    -0.00200
C757        C  0.72420342  0.19907415  0.55526252    -0.03900
C758        C  0.75257739  0.19727598  0.54604982     0.03200
C759        C  0.71006649  0.20181359  0.41930262     0.10000
C760        C  0.65882895  0.21321731  0.44404400     0.35900
C761        C  0.78561730  0.19293478  0.58131445     0.39300
C762        C  0.68841701  0.19107135  0.39269975    -0.04200
C763        C  0.68930312  0.18705827  0.35283666     0.02900
C764        C  0.71268056  0.19330946  0.34006426    -0.03800
C765        C  0.73021457  0.20532224  0.36251900     0.00000
C766        C  0.72908816  0.20955980  0.40232651    -0.02600
C767        C  0.66676163  0.18354107  0.40756831     0.36600
C768        C  0.74912692  0.21328932  0.34462947     0.40300
C769        C  0.66644947  0.17631924  0.32484476     0.39400
C770        C  0.74879855  0.22143951  0.42704956     0.36300
C771        C  0.77615483  0.19483618  0.49190270     0.37000
C772        C  0.66520649  0.20742108  0.53178073     0.40200
N773        N  0.64776850  0.16792139  0.30204557    -0.37800
N774        N  0.64926857  0.17761923  0.41926745    -0.39400
N775        N  0.76381056  0.21989090  0.33016178    -0.37100
N776        N  0.76469974  0.23088205  0.44691973    -0.39500
N777        N  0.63403106  0.21815983  0.41675980    -0.39300
N778        N  0.64239559  0.20974365  0.53935394    -0.36900
N779        N  0.81212235  0.18951675  0.60926150    -0.38000
N780        N  0.79813305  0.19154253  0.48373503    -0.39700
C781        C  0.85260671  0.34183264  0.00766969    -0.04600
C782        C  0.82609994  0.34570966  0.96548242     0.09600
C783        C  0.82471455  0.35933576  0.95049722    -0.02000
C784        C  0.85172678  0.36863015  0.97515734    -0.00200
C785        C  0.88015125  0.36434743  0.01544095    -0.03900
C786        C  0.87947250  0.35115269  0.03274259     0.03200
C787        C  0.80435799  0.33494067  0.93279886     0.10000
C788        C  0.79663532  0.36346133  0.90788703     0.35900
C789        C  0.90683141  0.34705586  0.07593613     0.39300
C790        C  0.76975687  0.33264125  0.92351762    -0.04200
C791        C  0.74876150  0.32353132  0.88859317     0.02900
C792        C  0.76257707  0.31658942  0.86347160    -0.03800
C793        C  0.79764556  0.31855647  0.87410414     0.00000
C794        C  0.81832644  0.32770424  0.90843614    -0.02600
C795        C  0.75572928  0.33987334  0.94928550     0.36600
C796        C  0.81275174  0.31089315  0.85021640     0.40300
C797        C  0.71292020  0.32150844  0.87784693     0.39400
C798        C  0.85392808  0.32998437  0.91793202     0.36300
C799        C  0.85319623  0.32796041  0.02380772     0.37000
C800        C  0.85135997  0.38215494  0.95675854     0.40200
N801        N  0.68431903  0.31983113  0.86931194    -0.37800
N802        N  0.74456536  0.34565918  0.96991201    -0.39400
N803        N  0.82477195  0.30472106  0.83133304    -0.37100
N804        N  0.88229108  0.33184021  0.92558090    -0.39500
N805        N  0.77418643  0.36672228  0.87392373    -0.39300
N806        N  0.85090401  0.39292302  0.94184019    -0.36900
N807        N  0.92860672  0.34380621  0.11047020    -0.38000
N808        N  0.85361300  0.31686592  0.03647150    -0.39700
C809        C  0.74990992  0.25432161  0.75910155    -0.04600
C810        C  0.72550444  0.25212025  0.71393956     0.09600
C811        C  0.69856483  0.26157324  0.69273631    -0.02000
C812        C  0.69683371  0.27346387  0.71576209    -0.00200
C813        C  0.72221443  0.27612207  0.76065850    -0.03900
C814        C  0.74858281  0.26632610  0.78223476     0.03200
C815        C  0.72824240  0.23985811  0.68846330     0.10000
C816        C  0.67327083  0.25929589  0.64638301     0.35900
C817        C  0.77647991  0.26906727  0.82644171     0.39300
C818        C  0.70615763  0.22848391  0.68084199    -0.04200
C819        C  0.70926890  0.21677895  0.65809989     0.02900
C820        C  0.73599233  0.21596727  0.64538715    -0.03800
C821        C  0.75678699  0.22762978  0.65064014     0.00000
C822        C  0.75250716  0.23964817  0.67140550    -0.02600
C823        C  0.68092882  0.22866862  0.69779842     0.36600
C824        C  0.78249093  0.22722430  0.63459420     0.40300
C825        C  0.68473205  0.20562052  0.64785739     0.39400
C826        C  0.77319477  0.25177083  0.67562759     0.36300
C827        C  0.77716700  0.24438368  0.78125705     0.37000
C828        C  0.66959920  0.28331219  0.69199726     0.40200
N829        N  0.66402399  0.19711471  0.63898285    -0.37800
N830        N  0.66094060  0.22883231  0.71153083    -0.39400
N831        N  0.80282590  0.22693126  0.62144875    -0.37100
N832        N  0.78953096  0.26149625  0.67885284    -0.39500
N833        N  0.65312658  0.25744383  0.60944627    -0.39300
N834        N  0.64795877  0.29116499  0.67290925    -0.36900
N835        N  0.79951230  0.27091935  0.86143142    -0.38000
N836        N  0.79891352  0.23644982  0.79879414    -0.39700
C837        C  0.52212793  0.33674326  0.91084519    -0.04600
C838        C  0.55221728  0.33704968  0.95236000     0.09600
C839        C  0.55767606  0.34796586  0.98276105    -0.02000
C840        C  0.53191966  0.35788670  0.97337417    -0.00200
C841        C  0.50057018  0.35695759  0.93336987    -0.03900
C842        C  0.49610920  0.34657852  0.90159911     0.03200
C843        C  0.57377791  0.32448303  0.96925062     0.10000
C844        C  0.58883588  0.34839635  0.02530144     0.35900
C845        C  0.46437067  0.34581090  0.85995825     0.39300
C846        C  0.60812981  0.32419969  0.97580842    -0.04200
C847        C  0.63102380  0.31408940  0.00375252     0.02900
C848        C  0.61911740  0.30407039  0.02379403    -0.03800
C849        C  0.58379268  0.30356979  0.01318113     0.00000
C850        C  0.56129777  0.31376977  0.98625228    -0.02600
C851        C  0.62014134  0.33468130  0.95554583     0.36600
C852        C  0.57076446  0.29274678  0.03134556     0.40300
C853        C  0.66705766  0.31444269  0.01398931     0.39400
C854        C  0.52579705  0.31381655  0.97885676     0.36300
C855        C  0.51730981  0.32584884  0.87886896     0.37000
C856        C  0.53668855  0.36835422  0.00670343     0.40200
N857        N  0.69584432  0.31465925  0.02218944    -0.37800
N858        N  0.62973038  0.34301033  0.93919979    -0.39400
N859        N  0.56038678  0.28411922  0.04573790    -0.37100
N860        N  0.49752105  0.31391479  0.97294333    -0.39500
N861        N  0.61371816  0.34868372  0.05914530    -0.39300
N862        N  0.54053474  0.37663659  0.03347610    -0.36900
N863        N  0.43894371  0.34519320  0.82685121    -0.38000
N864        N  0.51351575  0.31714357  0.85339493    -0.39700
C865        C  0.70843702  0.24924699  0.18504662    -0.04600
C866        C  0.68765363  0.23788215  0.16251635     0.09600
C867        C  0.66424141  0.23890167  0.11646656    -0.02000
C868        C  0.65975264  0.25158688  0.09381250    -0.00200
C869        C  0.67924903  0.26325392  0.11706939    -0.03900
C870        C  0.70493740  0.26172374  0.16229583     0.03200
C871        C  0.69145595  0.22477060  0.18765488     0.10000
C872        C  0.64388846  0.22698574  0.09294543     0.35900
C873        C  0.72687006  0.27326489  0.18652351     0.39300
C874        C  0.66801375  0.22126793  0.20439406    -0.04200
C875        C  0.67302455  0.20924076  0.23031540     0.02900
C876        C  0.70175340  0.20078650  0.24005107    -0.03800
C877        C  0.72564304  0.20456230  0.22411033     0.00000
C878        C  0.72023774  0.21638369  0.19763908    -0.02600
C879        C  0.63891761  0.23012536  0.19517350     0.36600
C880        C  0.75614978  0.19634634  0.23511801     0.40300
C881        C  0.64835442  0.20549941  0.24624905     0.39400
C882        C  0.74445041  0.22001477  0.18069909     0.36300
C883        C  0.73235745  0.24829087  0.23251527     0.37000
C884        C  0.63344000  0.25268418  0.04771139     0.40200
N885        N  0.62848788  0.20262970  0.25882594    -0.37800
N886        N  0.61570603  0.23720880  0.18777703    -0.39400
N887        N  0.78041701  0.18980049  0.24357513    -0.37100
N888        N  0.76370610  0.22298024  0.16720314    -0.39500
N889        N  0.62761862  0.21747008  0.07427759    -0.39300
N890        N  0.61224549  0.25317378  0.01085369    -0.36900
N891        N  0.74431051  0.28245090  0.20585471    -0.38000
N892        N  0.75126826  0.24756309  0.27039797    -0.39700
C893        C  0.68466178  0.27650482  0.87715351    -0.04600
C894        C  0.70341261  0.28124620  0.92192007     0.09600
C895        C  0.73517751  0.28803003  0.93375038    -0.02000
C896        C  0.74808874  0.28931134  0.90217520    -0.00200
C897        C  0.72594018  0.28754739  0.85564015    -0.03900
C898        C  0.69375948  0.28093837  0.84362386     0.03200
C899        C  0.68961758  0.27942149  0.95591241     0.10000
C900        C  0.75397562  0.29449547  0.97746335     0.35900
C901        C  0.66810917  0.27959729  0.79731772     0.39300
C902        C  0.71028933  0.27371991  0.99875014    -0.04200
C903        C  0.70069293  0.27519644  0.03367735     0.02900
C904        C  0.66672831  0.27928900  0.02385524    -0.03800
C905        C  0.64352230  0.28161912  0.97806733     0.00000
C906        C  0.65600867  0.28370553  0.94636557    -0.02600
C907        C  0.74181331  0.26657211  0.00730639     0.36600
C908        C  0.60667268  0.28091763  0.96222134     0.40300
C909        C  0.72725496  0.27354888  0.07927333     0.39400
C910        C  0.63468649  0.29106675  0.90535930     0.36300
C911        C  0.65547146  0.26731002  0.86516324     0.37000
C912        C  0.78462526  0.29166446  0.91871032     0.40200
N913        N  0.74994316  0.27226587  0.11483328    -0.37800
N914        N  0.76688595  0.26083250  0.01407169    -0.39400
N915        N  0.57708126  0.28002937  0.94799740    -0.37100
N916        N  0.61770162  0.29705726  0.87289269    -0.39500
N917        N  0.76894203  0.29975447  0.01215717    -0.39300
N918        N  0.81412188  0.29318992  0.93363493    -0.36900
N919        N  0.64611868  0.27839657  0.76115829    -0.38000
N920        N  0.63218732  0.25998224  0.85554768    -0.39700
loop_ 
_geom_bond_atom_site_label_1 
_geom_bond_atom_site_label_2 
_geom_bond_distance 
_geom_bond_site_symmetry_2 
_ccdc_geom_bond_type 
N1            C5   1.374       .  A
N1            C2   1.371       .  A
N1          C904   1.469       .  S
C2            C3   1.377       .  A
C2          C848   1.482       .  S
C3            C4   1.354       .  A
C3            H6   1.083       .  S
C4            C5   1.384       .  A
C4            H7   1.083       .  S
C5          C869   1.496       .  S
N8           C12   1.375       .  A
N8            C9   1.371       .  A
N8          C897   1.468       .  S
C9           C10   1.378       .  A
C9          C792   1.487       .  S
C10          C11   1.360       .  A
C10          H13   1.083       .  S
C11          C12   1.383       .  A
C11          H14   1.082       .  S
C12         C813   1.502       .  S
N15          C19   1.358       .  A
N15          C16   1.366       .  A
N15         C757   1.450       .  S
C16          C17   1.386       .  A
C16         C729   1.504       .  S
C17          C18   1.371       .  A
C17          H20   1.082       .  S
C18          C19   1.379       .  A
C18          H21   1.082       .  S
C19         C820   1.489       .  S
N22          C26   1.358       .  A
N22          C23   1.358       .  A
N22         C764   1.447       .  S
C23          C24   1.378       .  A
C23         C708   1.489       .  S
C24          C25   1.373       .  A
C24          H27   1.082       .  S
C25          C26   1.387       .  A
C25          H28   1.082       .  S
C26         C876   1.489       .  S
N29          C33   1.342       .  A
N29          N30   1.322       .  A
N29         Cu37   2.064       .  S
N30          C31   1.347       .  A
N30         Cu36   2.078       .  S
C31          C32   1.385       .  A
C31          H34   1.082       .  S
C32          C33   1.382       .  A
C32         C645   1.486       .  S
C33          H35   1.082       .  S
Cu36         N39   2.079       .  S
Cu37         N47   2.064       .  S
Cu38         N40   2.067       .  S
Cu38         N46   2.067       .  S
N39          C43   1.345       .  A
N39          N40   1.322       .  A
N40          C41   1.344       .  A
C41          C42   1.383       .  A
C41          H44   1.082       .  S
C42          C43   1.387       .  A
C42         C680   1.489       .  S
C43          H45   1.082       .  S
N46          C50   1.344       .  A
N46          N47   1.321       .  A
N47          C48   1.343       .  A
C48          C49   1.384       .  A
C48          H51   1.082       .  S
C49          C50   1.384       .  A
C49         C617   1.486       .  S
C50          H52   1.082       .  S
N53          C57   1.341       .  A
N53          N54   1.322       .  A
N53         Cu61   2.059       .  S
N54          C55   1.347       .  A
N54         Cu60   2.077       .  S
C55          C56   1.384       .  A
C55          H58   1.082       .  S
C56          C57   1.381       .  A
C56         C652   1.485       .  S
C57          H59   1.082       .  S
Cu60         N63   2.077       .  S
Cu61         N71   2.062       .  S
Cu62         N64   2.065       .  S
Cu62         N70   2.065       .  S
N63          C67   1.344       .  A
N63          N64   1.322       .  A
N64          C65   1.343       .  A
C65          C66   1.382       .  A
C65          H68   1.082       .  S
C66          C67   1.387       .  A
C66         C589   1.488       .  S
C67          H69   1.082       .  S
N70          C74   1.344       .  A
N70          N71   1.321       .  A
N71          C72   1.343       .  A
C72          C73   1.381       .  A
C72          H75   1.082       .  S
C73          C74   1.383       .  A
C73         C561   1.482       .  S
C74          H76   1.082       .  S
N77          C81   1.352       .  A
N77          N78   1.322       .  A
N77         Cu85   2.101       .  S
N78          C79   1.342       .  A
N78         Cu84   2.063       .  S
C79          C80   1.381       .  A
C79          H82   1.082       .  S
C80          C81   1.390       .  A
C80         C540   1.492       .  S
C81          H83   1.082       .  S
Cu84         N87   2.062       .  S
Cu85         N95   2.101       .  S
Cu86         N88   2.073       .  S
Cu86         N94   2.073       .  S
N87          C91   1.342       .  A
N87          N88   1.321       .  A
N88          C89   1.345       .  A
C89          C90   1.386       .  A
C89          H92   1.082       .  S
C90          C91   1.383       .  A
C90         C568   1.487       .  S
C91          H93   1.082       .  S
N94          C98   1.343       .  A
N94          N95   1.321       .  A
N95          C96   1.348       .  A
C96          C97   1.397       .  A
C96          H99   1.080       .  S
C97          C98   1.390       .  A
C97         C736   1.511       .  S
C98         H100   1.080       .  S
N101        C105   1.350       .  A
N101        N102   1.323       .  A
N101       Cu109   2.097       .  S
N102        C103   1.342       .  A
N102       Cu108   2.068       .  S
C103        C104   1.383       .  A
C103        H106   1.082       .  S
C104        C105   1.390       .  A
C104        C533   1.495       .  S
C105        H107   1.082       .  S
Cu108       N111   2.067       .  S
Cu109       N119   2.097   1_455  S
Cu110       N112   2.066       .  S
Cu110       N118   2.066       .  S
N111        C115   1.344       .  A
N111        N112   1.320   1_455  A
N112        C113   1.344       .  A
C113        C114   1.384       .  A
C113        H116   1.082       .  S
C114        C115   1.384   1_655  A
C114        C624   1.487       .  S
C115        H117   1.082       .  S
N118        C122   1.344       .  A
N118        N119   1.324       .  A
N119        C120   1.348       .  A
C120        C121   1.388       .  A
C120        H123   1.082       .  S
C121        C122   1.379       .  A
C121        C701   1.483       .  S
C122        H124   1.082       .  S
N125        C129   1.365       .  A
N125        C126   1.363       .  A
N125        C512   1.457       .  S
C126        C127   1.384       .  A
C126        C477   1.488       .  S
C127        C128   1.365       .  A
C127        H130   1.083       .  S
C128        C129   1.380       .  A
C128        H131   1.082       .  S
C129        C456   1.497       .  S
N132        C136   1.364       .  A
N132        C133   1.368       .  A
N132        C505   1.457       .  S
C133        C134   1.382       .  A
C133        C421   1.490       .  S
C134        C135   1.363       .  A
C134        H137   1.083       .  S
C135        C136   1.379       .  A
C135        H138   1.082       .  S
C136        C393   1.488       .  S
N139        C143   1.365       .  A
N139        C140   1.369       .  A
N139        C372   1.454       .  S
C140        C141   1.383       .  A
C140        C484   1.494       .  S
C141        C142   1.363       .  A
C141        H144   1.083       .  S
C142        C143   1.379       .  A
C142        H145   1.082       .  S
C143        C596   1.490       .  S
N146        C150   1.366       .  A
N146        C147   1.364       .  A
N146        C365   1.453       .  S
C147        C148   1.382       .  A
C147        C428   1.486       .  S
C148        C149   1.364       .  A
C148        H151   1.083       .  S
C149        C150   1.381       .  A
C149        H152   1.083       .  S
C150        C673   1.490       .  S
N153        C157   1.343       .  A
N153        N154   1.320       .  A
N153       Cu161   2.072       .  S
N154        C155   1.345       .  A
N154       Cu160   2.064       .  S
C155        C156   1.386       .  A
C155        H158   1.082       .  S
C156        C157   1.386       .  A
C156        C344   1.490       .  S
C157        H159   1.082       .  S
Cu160       N163   2.065       .  S
Cu161       N171   2.072       .  S
Cu162       N164   2.082       .  S
Cu162       N170   2.082       .  S
N163        C167   1.341       .  A
N163        N164   1.322       .  A
N164        C165   1.347       .  A
C165        C166   1.387       .  A
C165        H168   1.082   1_654  S
C166        C167   1.383       .  A
C166        C449   1.488       .  S
C167        H169   1.082       .  S
N170        C174   1.348       .  A
N170        N171   1.323       .  A
N171        C172   1.343       .  A
C172        C173   1.382       .  A
C172        H175   1.082       .  S
C173        C174   1.385       .  A
C173        C316   1.486       .  S
C174        H176   1.082       .  S
N177        C181   1.339       .  A
N177        N178   1.319       .  A
N177       Cu185   2.055       .  S
N178        C179   1.347       .  A
N178       Cu184   2.070       .  S
C179        C180   1.388       .  A
C179        H182   1.082       .  S
C180        C181   1.383       .  A
C180        C337   1.489       .  S
C181        H183   1.082       .  S
Cu184       N187   2.070       .  S
Cu185       N195   2.056       .  S
Cu186       N188   2.084       .  S
Cu186       N194   2.083       .  S
N187        C191   1.341       .  A
N187        N188   1.324       .  A
N188        C189   1.347       .  A
C189        C190   1.385       .  A
C189        H192   1.082       .  S
C190        C191   1.382       .  A
C190        C400   1.484       .  S
C191        H193   1.082       .  S
N194        C198   1.348       .  A
N194        N195   1.321       .  A
N195        C196   1.340       .  A
C196        C197   1.380       .  A
C196        H199   1.082       .  S
C197        C198   1.388       .  A
C197        C281   1.488       .  S
C198        H200   1.082       .  S
N201        C205   1.349       .  A
N201        N202   1.322       .  A
N201       Cu209   2.082       .  S
N202        C203   1.341       .  A
N202       Cu208   2.067       .  S
C203        C204   1.383       .  A
C203        H206   1.082       .  S
C204        C205   1.389       .  A
C204        C253   1.491       .  S
C205        H207   1.082       .  S
Cu208       N211   2.067       .  S
Cu209       N219   2.083   1_455  S
Cu210       N212   2.076       .  S
Cu210       N218   2.076       .  S
N211        C215   1.345       .  A
N211        N212   1.321   1_455  A
N212        C213   1.345       .  A
C213        C214   1.386       .  A
C213        H216   1.082       .  S
C214        C215   1.384   1_655  A
C214        C309   1.488       .  S
C215        H217   1.082       .  S
N218        C222   1.346       .  A
N218        N219   1.323       .  A
N219        C220   1.345       .  A
C220        C221   1.385       .  A
C220        H223   1.082       .  S
C221        C222   1.385       .  A
C221        C785   1.491       .  S
C222        H224   1.082       .  S
N225        C229   1.348       .  A
N225        N226   1.322       .  A
N225       Cu233   2.085       .  S
N226        C227   1.342       .  A
N226       Cu232   2.069       .  S
C227        C228   1.384       .  A
C227        H230   1.082       .  S
C228        C229   1.389       .  A
C228        C260   1.493       .  S
C229        H231   1.082       .  S
Cu232       N235   2.067       .  S
Cu233       N243   2.086       .  S
Cu234       N236   2.057       .  S
Cu234       N242   2.057       .  S
N235        C239   1.342       .  A
N235        N236   1.320       .  A
N236        C237   1.344       .  A
C237        C238   1.383       .  A
C237        H240   1.082       .  S
C238        C239   1.385       .  A
C238        C288   1.486       .  S
C239        H241   1.082       .  S
N242        C246   1.342       .  A
N242        N243   1.323       .  A
N243        C244   1.347       .  A
C244        C245   1.385       .  A
C244        H247   1.082       .  S
C245        C246   1.378       .  A
C245        C841   1.481       .  S
C246        H248   1.082       .  S
C249        C250   1.410       .  A
C249        C254   1.408       .  A
C249        C267   1.451       .  S
C250        C251   1.410   1_554  A
C250        C255   1.497   1_554  S
C251        C252   1.413   1_556  A
C251        C256   1.450       .  S
C252        C253   1.417       .  A
C252        C268   1.450   1_554  S
C253        C254   1.415       .  A
C254        C257   1.451       .  S
C255        C258   1.409   1_556  A
C255        C262   1.411       .  A
C256        N273   1.157       .  T
C257        N275   1.157       .  T
C258        C259   1.413   1_554  A
C258        C263   1.450       .  S
C259        C260   1.418       .  A
C259        C265   1.450   1_556  S
C260        C261   1.416       .  A
C261        C262   1.409       .  A
C261        C264   1.451       .  S
C262        C266   1.452       .  S
C263        N270   1.157       .  T
C264        N271   1.157       .  T
C265        N269   1.157       .  T
C266        N272   1.157       .  T
C267        N276   1.157       .  T
C268        N274   1.157       .  T
C277        C278   1.411       .  A
C277        C282   1.410       .  A
C277        C295   1.451   1_554  S
C278        C279   1.410       .  A
C278        C283   1.494       .  S
C279        C280   1.408       .  A
C279        C284   1.452       .  S
C280        C281   1.417       .  A
C280        C296   1.451       .  S
C281        C282   1.415       .  A
C282        C285   1.450       .  S
C283        C286   1.411   1_554  A
C283        C290   1.410       .  A
C284        N301   1.157       .  T
C285        N303   1.157   1_554  T
C286        C287   1.410       .  A
C286        C291   1.451       .  S
C287        C288   1.415       .  A
C287        C293   1.451       .  S
C288        C289   1.416   1_556  A
C289        C290   1.407       .  A
C289        C292   1.452       .  S
C290        C294   1.452       .  S
C291        N298   1.157       .  T
C292        N299   1.157       .  T
C293        N297   1.157       .  T
C294        N300   1.157       .  T
C295        N304   1.157       .  T
C296        N302   1.157       .  T
C305        C306   1.410       .  A
C305        C310   1.410       .  A
C305        C323   1.451       .  S
C306        C307   1.409       .  A
C306        C311   1.495       .  S
C307        C308   1.411       .  A
C307        C312   1.451   1_554  S
C308        C309   1.416       .  A
C308        C324   1.451   1_654  S
C309        C310   1.415       .  A
C310        C313   1.451       .  S
C311        C314   1.411       .  A
C311        C318   1.410       .  A
C312        N329   1.157       .  T
C313        N331   1.157       .  T
C314        C315   1.412       .  A
C314        C319   1.450   1_655  S
C315        C316   1.414       .  A
C315        C321   1.450   1_655  S
C316        C317   1.414       .  A
C317        C318   1.409       .  A
C317        C320   1.451   1_554  S
C318        C322   1.451   1_554  S
C319        N326   1.157       .  T
C320        N327   1.157       .  T
C321        N325   1.157       .  T
C322        N328   1.157       .  T
C323        N332   1.157       .  T
C324        N330   1.157       .  T
C333        C334   1.409       .  A
C333        C338   1.405       .  A
C333        C351   1.453       .  S
C334        C335   1.409       .  A
C334        C339   1.492       .  S
C335        C336   1.413       .  A
C335        C340   1.450       .  S
C336        C337   1.416       .  A
C336        C352   1.450       .  S
C337        C338   1.417       .  A
C338        C341   1.452       .  S
C339        C342   1.409       .  A
C339        C346   1.408       .  A
C340        N357   1.157       .  T
C341        N359   1.157       .  T
C342        C343   1.410       .  A
C342        C347   1.451       .  S
C343        C344   1.418       .  A
C343        C349   1.450       .  S
C344        C345   1.416       .  A
C345        C346   1.409       .  A
C345        C348   1.451       .  S
C346        C350   1.451       .  S
C347        N354   1.157       .  T
C348        N355   1.157       .  T
C349        N353   1.157       .  T
C350        N356   1.157       .  T
C351        N360   1.157       .  T
C352        N358   1.157       .  T
C361        C362   1.411       .  A
C361        C366   1.414       .  A
C361        C379   1.452       .  S
C362        C363   1.408       .  A
C362        C367   1.501       .  S
C363        C364   1.412       .  A
C363        C368   1.450       .  S
C364        C365   1.416       .  A
C364        C380   1.446       .  S
C365        C366   1.415       .  A
C366        C369   1.446       .  S
C367        C370   1.410       .  A
C367        C374   1.408       .  A
C368        N385   1.157       .  T
C369        N387   1.157       .  T
C370        C371   1.416       .  A
C370        C375   1.450       .  S
C371        C372   1.416       .  A
C371        C377   1.446       .  S
C372        C373   1.417       .  A
C373        C374   1.411       .  A
C373        C376   1.446       .  S
C374        C378   1.452       .  S
C375        N382   1.157       .  T
C376        N383   1.157       .  T
C377        N381   1.157       .  T
C378        N384   1.157       .  T
C379        N388   1.157       .  T
C380        N386   1.157       .  T
C389        C390   1.407       .  A
C389        C394   1.406   1_554  A
C389        C407   1.452   1_554  S
C390        C391   1.409       .  A
C390        C395   1.491       .  S
C391        C392   1.412       .  A
C391        C396   1.451       .  S
C392        C393   1.415   1_554  A
C392        C408   1.448       .  S
C393        C394   1.418       .  A
C394        C397   1.452       .  S
C395        C398   1.411       .  A
C395        C402   1.409       .  A
C396        N413   1.157       .  T
C397        N415   1.157       .  T
C398        C399   1.404       .  A
C398        C403   1.453       .  S
C399        C400   1.415       .  A
C399        C405   1.452       .  S
C400        C401   1.414       .  A
C401        C402   1.413       .  A
C401        C404   1.449       .  S
C402        C406   1.449       .  S
C403        N410   1.157       .  T
C404        N411   1.157       .  T
C405        N409   1.157       .  T
C406        N412   1.157       .  T
C407        N416   1.157       .  T
C408        N414   1.157       .  T
C417        C418   1.406       .  A
C417        C422   1.409       .  A
C417        C435   1.451       .  S
C418        C419   1.413       .  A
C418        C423   1.494       .  S
C419        C420   1.412       .  A
C419        C424   1.452       .  S
C420        C421   1.411       .  A
C420        C436   1.448       .  S
C421        C422   1.421       .  A
C422        C425   1.453       .  S
C423        C426   1.412       .  A
C423        C430   1.406       .  A
C424        N441   1.157       .  T
C425        N443   1.157       .  T
C426        C427   1.413       .  A
C426        C431   1.450       .  S
C427        C428   1.411       .  A
C427        C433   1.448       .  S
C428        C429   1.419       .  A
C429        C430   1.406       .  A
C429        C432   1.453       .  S
C430        C434   1.451       .  S
C431        N438   1.157       .  T
C432        N439   1.157       .  T
C433        N437   1.157       .  T
C434        N440   1.157       .  T
C435        N444   1.157       .  T
C436        N442   1.157       .  T
C445        C446   1.409   1_556  A
C445        C450   1.414       .  A
C445        C463   1.449       .  S
C446        C447   1.412       .  A
C446        C451   1.495       .  S
C447        C448   1.406       .  A
C447        C452   1.454       .  S
C448        C449   1.416   1_455  A
C448        C464   1.452   1_455  S
C449        C450   1.416   1_654  A
C450        C453   1.450   1_455  S
C451        C454   1.406   1_554  A
C451        C458   1.407       .  A
C452        N469   1.157       .  T
C453        N471   1.157       .  T
C454        C455   1.411       .  A
C454        C459   1.451       .  S
C455        C456   1.421   1_556  A
C455        C461   1.450       .  S
C456        C457   1.418       .  A
C457        C458   1.410       .  A
C457        C460   1.446       .  S
C458        C462   1.452       .  S
C459        N466   1.157   1_455  T
C460        N467   1.156       .  T
C461        N465   1.157       .  T
C462        N468   1.157       .  T
C463        N472   1.157       .  T
C464        N470   1.157       .  T
C473        C474   1.415       .  A
C473        C478   1.415       .  A
C473        C491   1.449       .  S
C474        C475   1.406       .  A
C474        C479   1.498       .  S
C475        C476   1.408       .  A
C475        C480   1.451       .  S
C476        C477   1.419       .  A
C476        C492   1.452       .  S
C477        C478   1.408       .  A
C478        C481   1.449       .  S
C479        C482   1.411       .  A
C479        C486   1.406       .  A
C480        N497   1.157       .  T
C481        N499   1.157       .  T
C482        C483   1.414       .  A
C482        C487   1.451       .  S
C483        C484   1.414       .  A
C483        C489   1.447       .  S
C484        C485   1.422       .  A
C485        C486   1.410       .  A
C485        C488   1.452       .  S
C486        C490   1.451       .  S
C487        N494   1.157       .  T
C488        N495   1.157       .  T
C489        N493   1.157       .  T
C490        N496   1.157       .  T
C491        N500   1.157       .  T
C492        N498   1.157       .  T
C501        C502   1.408       .  A
C501        C506   1.412       .  A
C501        C519   1.452       .  S
C502        C503   1.411       .  A
C502        C507   1.504   1_556  S
C503        C504   1.418       .  A
C503        C508   1.450   1_556  S
C504        C505   1.417       .  A
C504        C520   1.446       .  S
C505        C506   1.417       .  A
C506        C509   1.446       .  S
C507        C510   1.412       .  A
C507        C514   1.408   1_554  A
C508        N525   1.157       .  T
C509        N527   1.157       .  T
C510        C511   1.418       .  A
C510        C515   1.450       .  S
C511        C512   1.416       .  A
C511        C517   1.446       .  S
C512        C513   1.418       .  A
C513        C514   1.410   1_554  A
C513        C516   1.448   1_554  S
C514        C518   1.451       .  S
C515        N522   1.157       .  T
C516        N523   1.157       .  T
C517        N521   1.158       .  T
C518        N524   1.157       .  T
C519        N528   1.157       .  T
C520        N526   1.157       .  T
C529        C530   1.411       .  A
C529        C534   1.415       .  A
C529        C547   1.450       .  S
C530        C531   1.410       .  A
C530        C535   1.501       .  S
C531        C532   1.411       .  A
C531        C536   1.451       .  S
C532        C533   1.418       .  A
C532        C548   1.451       .  S
C533        C534   1.416       .  A
C534        C537   1.450       .  S
C535        C538   1.411       .  A
C535        C542   1.412       .  A
C536        N553   1.157       .  T
C537        N555   1.157       .  T
C538        C539   1.411       .  A
C538        C543   1.451       .  S
C539        C540   1.416       .  A
C539        C545   1.451       .  S
C540        C541   1.413       .  A
C541        C542   1.415       .  A
C541        C544   1.450       .  S
C542        C546   1.449       .  S
C543        N550   1.157       .  T
C544        N551   1.157       .  T
C545        N549   1.157       .  T
C546        N552   1.157       .  T
C547        N556   1.157       .  T
C548        N554   1.157       .  T
C557        C558   1.410       .  A
C557        C562   1.410       .  A
C557        C575   1.451       .  S
C558        C559   1.411       .  A
C558        C563   1.493       .  S
C559        C560   1.407       .  A
C559        C564   1.451       .  S
C560        C561   1.412       .  A
C560        C576   1.451       .  S
C561        C562   1.415       .  A
C562        C565   1.451       .  S
C563        C566   1.410   1_565  A
C563        C570   1.410       .  A
C564        N581   1.157   1_565  T
C565        N583   1.157       .  T
C566        C567   1.407       .  A
C566        C571   1.452   1_545  S
C567        C568   1.416       .  A
C567        C573   1.451       .  S
C568        C569   1.415       .  A
C569        C570   1.411   1_545  A
C569        C572   1.451       .  S
C570        C574   1.450       .  S
C571        N578   1.157       .  T
C572        N579   1.157       .  T
C573        N577   1.157       .  T
C574        N580   1.157       .  T
C575        N584   1.157       .  T
C576        N582   1.157       .  T
C585        C586   1.411       .  A
C585        C590   1.407       .  A
C585        C603   1.453       .  S
C586        C587   1.407       .  A
C586        C591   1.492       .  S
C587        C588   1.412       .  A
C587        C592   1.449       .  S
C588        C589   1.417       .  A
C588        C604   1.450       .  S
C589        C590   1.416       .  A
C590        C593   1.452       .  S
C591        C594   1.408       .  A
C591        C598   1.407       .  A
C592        N609   1.157       .  T
C593        N611   1.158       .  T
C594        C595   1.412       .  A
C594        C599   1.451       .  S
C595        C596   1.415       .  A
C595        C601   1.447       .  S
C596        C597   1.418       .  A
C597        C598   1.407       .  A
C597        C600   1.452       .  S
C598        C602   1.452       .  S
C599        N606   1.157       .  T
C600        N607   1.157       .  T
C601        N605   1.157       .  T
C602        N608   1.157       .  T
C603        N612   1.157       .  T
C604        N610   1.157       .  T
C613        C614   1.411       .  A
C613        C618   1.409       .  A
C613        C631   1.451       .  S
C614        C615   1.411       .  A
C614        C619   1.494   1_565  S
C615        C616   1.410       .  A
C615        C620   1.451       .  S
C616        C617   1.415       .  A
C616        C632   1.451       .  S
C617        C618   1.415       .  A
C618        C621   1.451       .  S
C619        C622   1.411       .  A
C619        C626   1.410       .  A
C620        N637   1.157       .  T
C621        N639   1.157       .  T
C622        C623   1.409   1_655  A
C622        C627   1.451   1_645  S
C623        C624   1.414   1_455  A
C623        C629   1.451       .  S
C624        C625   1.416       .  A
C625        C626   1.410       .  A
C625        C628   1.451       .  S
C626        C630   1.451       .  S
C627        N634   1.157       .  T
C628        N635   1.157       .  T
C629        N633   1.157       .  T
C630        N636   1.157       .  T
C631        N640   1.157       .  T
C632        N638   1.157       .  T
C641        C642   1.410       .  A
C641        C646   1.411       .  A
C641        C659   1.450       .  S
C642        C643   1.409       .  A
C642        C647   1.492       .  S
C643        C644   1.408       .  A
C643        C648   1.452       .  S
C644        C645   1.416       .  A
C644        C660   1.451       .  S
C645        C646   1.414       .  A
C646        C649   1.450       .  S
C647        C650   1.410       .  A
C647        C654   1.409       .  A
C648        N665   1.157       .  T
C649        N667   1.157       .  T
C650        C651   1.412       .  A
C650        C655   1.449       .  S
C651        C652   1.412       .  A
C651        C657   1.450       .  S
C652        C653   1.417       .  A
C653        C654   1.407       .  A
C653        C656   1.452       .  S
C654        C658   1.452       .  S
C655        N662   1.157       .  T
C656        N663   1.157       .  T
C657        N661   1.157       .  T
C658        N664   1.157       .  T
C659        N668   1.157       .  T
C660        N666   1.157       .  T
C669        C670   1.406       .  A
C669        C674   1.408       .  A
C669        C687   1.451   1_455  S
C670        C671   1.408       .  A
C670        C675   1.495       .  S
C671        C672   1.413       .  A
C671        C676   1.451       .  S
C672        C673   1.417       .  A
C672        C688   1.447       .  S
C673        C674   1.419       .  A
C674        C677   1.451       .  S
C675        C678   1.413       .  A
C675        C682   1.408       .  A
C676        N693   1.157       .  T
C677        N695   1.157       .  T
C678        C679   1.407   1_455  A
C678        C683   1.453       .  S
C679        C680   1.415       .  A
C679        C685   1.452       .  S
C680        C681   1.417       .  A
C681        C682   1.413   1_655  A
C681        C684   1.450       .  S
C682        C686   1.449       .  S
C683        N690   1.157       .  T
C684        N691   1.157       .  T
C685        N689   1.157       .  T
C686        N692   1.157       .  T
C687        N696   1.157       .  T
C688        N694   1.156       .  T
C697        C698   1.410       .  A
C697        C702   1.414       .  A
C697        C715   1.450       .  S
C698        C699   1.412       .  A
C698        C703   1.495       .  S
C699        C700   1.407       .  A
C699        C704   1.452       .  S
C700        C701   1.412       .  A
C700        C716   1.451       .  S
C701        C702   1.414       .  A
C702        C705   1.449       .  S
C703        C706   1.407       .  A
C703        C710   1.409       .  A
C704        N721   1.157       .  T
C705        N723   1.157       .  T
C706        C707   1.408       .  A
C706        C711   1.452       .  S
C707        C708   1.415       .  A
C707        C713   1.448       .  S
C708        C709   1.414       .  A
C709        C710   1.412       .  A
C709        C712   1.449       .  S
C710        C714   1.450       .  S
C711        N718   1.157       .  T
C712        N719   1.157       .  T
C713        N717   1.157       .  T
C714        N720   1.157       .  T
C715        N724   1.157       .  T
C716        N722   1.157       .  T
C725        C726   1.409       .  A
C725        C730   1.408       .  A
C725        C743   1.454       .  S
C726        C727   1.412       .  A
C726        C731   1.504       .  S
C727        C728   1.418       .  A
C727        C732   1.450       .  S
C728        C729   1.417       .  A
C728        C744   1.447       .  S
C729        C730   1.424       .  A
C730        C733   1.452       .  S
C731        C734   1.410       .  A
C731        C738   1.409       .  A
C732        N749   1.157       .  T
C733        N751   1.158       .  T
C734        C735   1.413       .  A
C734        C739   1.452       .  S
C735        C736   1.422       .  A
C735        C741   1.449       .  S
C736        C737   1.425       .  A
C737        C738   1.414       .  A
C737        C740   1.450       .  S
C738        C742   1.451       .  S
C739        N746   1.157       .  T
C740        N747   1.158       .  T
C741        N745   1.158       .  T
C742        N748   1.157       .  T
C743        N752   1.157       .  T
C744        N750   1.157       .  T
C753        C754   1.413       .  A
C753        C758   1.409       .  A
C753        C771   1.453       .  S
C754        C755   1.416       .  A
C754        C759   1.506       .  S
C755        C756   1.417       .  A
C755        C760   1.449       .  S
C756        C757   1.408       .  A
C756        C772   1.446       .  S
C757        C758   1.418       .  A
C758        C761   1.450       .  S
C759        C762   1.414       .  A
C759        C766   1.417       .  A
C760        N777   1.157       .  T
C761        N779   1.157       .  T
C762        C763   1.407       .  A
C762        C767   1.450       .  S
C763        C764   1.410       .  A
C763        C769   1.449       .  S
C764        C765   1.407       .  A
C765        C766   1.416       .  A
C765        C768   1.445       .  S
C766        C770   1.449       .  S
C767        N774   1.157       .  T
C768        N775   1.157       .  T
C769        N773   1.157       .  T
C770        N776   1.157       .  T
C771        N780   1.157       .  T
C772        N778   1.157       .  T
C781        C782   1.410   1_554  A
C781        C786   1.411       .  A
C781        C799   1.450       .  S
C782        C783   1.410       .  A
C782        C787   1.495       .  S
C783        C784   1.410       .  A
C783        C788   1.451       .  S
C784        C785   1.417   1_556  A
C784        C800   1.451       .  S
C785        C786   1.415       .  A
C786        C789   1.450       .  S
C787        C790   1.413       .  A
C787        C794   1.410       .  A
C788        N805   1.157       .  T
C789        N807   1.157       .  T
C790        C791   1.415       .  A
C790        C795   1.448       .  S
C791        C792   1.411       .  A
C791        C797   1.449       .  S
C792        C793   1.416       .  A
C793        C794   1.404       .  A
C793        C796   1.454       .  S
C794        C798   1.453       .  S
C795        N802   1.157       .  T
C796        N803   1.157       .  T
C797        N801   1.157       .  T
C798        N804   1.157       .  T
C799        N808   1.157       .  T
C800        N806   1.157       .  T
C809        C810   1.411       .  A
C809        C814   1.416       .  A
C809        C827   1.451       .  S
C810        C811   1.407       .  A
C810        C815   1.502       .  S
C811        C812   1.410       .  A
C811        C816   1.452       .  S
C812        C813   1.424       .  A
C812        C828   1.453       .  S
C813        C814   1.416       .  A
C814        C817   1.447       .  S
C815        C818   1.409       .  A
C815        C822   1.415       .  A
C816        N833   1.157       .  T
C817        N835   1.156       .  T
C818        C819   1.410       .  A
C818        C823   1.451       .  S
C819        C820   1.415       .  A
C819        C825   1.448       .  S
C820        C821   1.410       .  A
C821        C822   1.415       .  A
C821        C824   1.449       .  S
C822        C826   1.449       .  S
C823        N830   1.157       .  T
C824        N831   1.157       .  T
C825        N829   1.157       .  T
C826        N832   1.157       .  T
C827        N836   1.157       .  T
C828        N834   1.157       .  T
C837        C838   1.410       .  A
C837        C842   1.410       .  A
C837        C855   1.450       .  S
C838        C839   1.412       .  A
C838        C843   1.491       .  S
C839        C840   1.407       .  A
C839        C844   1.452   1_556  S
C840        C841   1.414       .  A
C840        C856   1.452   1_556  S
C841        C842   1.412       .  A
C842        C845   1.450       .  S
C843        C846   1.413       .  A
C843        C850   1.410       .  A
C844        N861   1.157       .  T
C845        N863   1.157       .  T
C846        C847   1.413   1_556  A
C846        C851   1.448       .  S
C847        C848   1.410       .  A
C847        C853   1.449       .  S
C848        C849   1.416       .  A
C849        C850   1.401   1_554  A
C849        C852   1.454       .  S
C850        C854   1.453       .  S
C851        N858   1.157       .  T
C852        N859   1.157       .  T
C853        N857   1.157       .  T
C854        N860   1.157       .  T
C855        N864   1.157       .  T
C856        N862   1.157       .  T
C865        C866   1.407       .  A
C865        C870   1.405       .  A
C865        C883   1.452       .  S
C866        C867   1.412       .  A
C866        C871   1.497       .  S
C867        C868   1.416       .  A
C867        C872   1.450       .  S
C868        C869   1.415       .  A
C868        C884   1.447       .  S
C869        C870   1.422       .  A
C870        C873   1.454       .  S
C871        C874   1.414       .  A
C871        C878   1.407       .  A
C872        N889   1.157       .  T
C873        N891   1.157       .  T
C874        C875   1.415       .  A
C874        C879   1.450       .  S
C875        C876   1.411       .  A
C875        C881   1.449       .  S
C876        C877   1.419       .  A
C877        C878   1.406       .  A
C877        C880   1.452       .  S
C878        C882   1.452       .  S
C879        N886   1.157       .  T
C880        N887   1.157       .  T
C881        N885   1.157       .  T
C882        N888   1.157       .  T
C883        N892   1.157       .  T
C884        N890   1.157       .  T
C893        C894   1.415       .  A
C893        C898   1.418       .  A
C893        C911   1.452       .  S
C894        C895   1.416       .  A
C894        C899   1.521       .  S
C895        C896   1.412       .  A
C895        C900   1.451       .  S
C896        C897   1.419       .  A
C896        C912   1.447       .  S
C897        C898   1.423       .  A
C898        C901   1.444       .  S
C899        C902   1.415       .  A
C899        C906   1.416       .  A
C900        N917   1.157   1_556  T
C901        N919   1.156       .  T
C902        C903   1.418   1_556  A
C902        C907   1.451   1_556  S
C903        C904   1.423       .  A
C903        C909   1.444       .  S
C904        C905   1.418   1_554  A
C905        C906   1.412       .  A
C905        C908   1.447       .  S
C906        C910   1.451       .  S
C907        N914   1.157       .  T
C908        N915   1.157       .  T
C909        N913   1.157       .  T
C910        N916   1.157       .  T
C911        N920   1.157       .  T
C912        N918   1.158       .  T
