geometry optimzed in LAMMPS
_audit_creation_date              2020-11-30 
_audit_creation_method            'lammps2cif' 
_symmetry_space_group_name_H-M    'P1' 
_symmetry_Int_Tables_number       1 
_symmetry_cell_setting            triclinic 
loop_ 
_symmetry_equiv_pos_as_xyz 
  x,y,z 
_cell_length_a                    38.07335721 
_cell_length_b                    49.819552203357176 
_cell_length_c                    23.435575596075783 
_cell_angle_alpha                 90.64413703058042 
_cell_angle_beta                  89.99696145463511 
_cell_angle_gamma                 88.13662377891241 
loop_ 
_atom_site_label 
_atom_site_type_symbol 
_atom_site_fract_x 
_atom_site_fract_y 
_atom_site_fract_z 
_atom_site_charge 
C1          C  0.29292680  0.25086815  0.34261481     0.02900
C2          C  0.31436711  0.27043947  0.31697027    -0.13200
C3          C  0.35054428  0.27172688  0.32961672     0.00400
C4          C  0.36614875  0.25281707  0.03271310    -0.11700
C5          C  0.34689321  0.23229395  0.05631682     0.02900
C6          C  0.31031030  0.23177468  0.04515784    -0.11200
H7          H  0.30350527  0.28515525  0.28793291     0.08500
H8          H  0.39368291  0.25454968  0.04311317     0.06000
H9          H  0.29571513  0.21619827  0.06453111     0.05900
C10         C  0.25297364  0.25050759  0.99955945     0.02900
C11         C  0.23206693  0.22872569  0.01790939    -0.13200
C12         C  0.19523540  0.22920104  0.00966741     0.00400
C13         C  0.17917309  0.25050659  0.98123211    -0.11700
C14         C  0.19819020  0.27192411  0.29605487     0.02900
C15         C  0.23465347  0.27243873  0.30622563    -0.11200
H16         H  0.24361557  0.21108395  0.03752775     0.08500
H17         H  0.15089816  0.25080075  0.97489940     0.06000
H18         H  0.24787025  0.29036555  0.29436062     0.05900
N19         N  0.09068217  0.38217042  0.04814543    -0.27500
N20         N  0.07705803  0.36101955  0.40561252    -0.35300
C21         C  0.09114376  0.33858407  0.38130073     0.00800
C22         C  0.11371739  0.34591571  0.33837428     0.06900
C23         C  0.11349295  0.37372556  0.00771736    -0.06200
H24         H  0.08194180  0.31860302  0.38877535     0.07500
H25         H  0.12615267  0.38716931  0.97897172     0.08700
Cu26       Cu  0.02899057  0.36211255  0.44575638     0.44200
Cu27       Cu  0.06961277  0.42096980  0.05171312     0.42000
Cu28       Cu  0.47767270  0.42038501  0.06296765     0.43900
N29         N  0.47759610  0.36050952  0.41908283    -0.34900
N30         N  0.45956625  0.38158217  0.06623162    -0.29100
C31         C  0.43326842  0.37298537  0.03344845    -0.05200
C32         C  0.43527789  0.34511835  0.36378759     0.07000
C33         C  0.46316524  0.33798365  0.39900855     0.00800
H34         H  0.41652916  0.38639583  0.00886576     0.08400
H35         H  0.47519488  0.31811176  0.40293242     0.07500
N36         N  0.00364450  0.45415408  0.03711261    -0.36300
N37         N  0.03822059  0.45439642  0.03299986    -0.28500
C38         C  0.04749292  0.47756050  0.00909136    -0.03700
C39         C  0.01717626  0.49258969  0.99747979     0.04900
C40         C  0.48986763  0.47717190  0.01596349     0.03000
H41         H  0.07419087  0.48259242  0.99895777     0.08100
H42         H  0.46201742  0.48184923  0.01232828     0.06900
N43         N  0.07450818  0.13147079  0.91629275    -0.27500
N44         N  0.05533047  0.15357901  0.90736821    -0.35300
C45         C  0.07216206  0.17472799  0.92857203     0.00800
C46         C  0.10306072  0.16567404  0.95424402     0.06900
C47         C  0.10411564  0.13813879  0.94335144    -0.06200
H48         H  0.05994624  0.19453833  0.93302482     0.07500
H49         H  0.12248193  0.12345355  0.96096245     0.08700
Cu50       Cu  0.00168679  0.15398821  0.89927404     0.44200
Cu51       Cu  0.05432059  0.09313244  0.24923655     0.42000
Cu52       Cu  0.46046291  0.09203685  0.26694293     0.43900
N53         N  0.45617171  0.15215826  0.94592504    -0.34900
N54         N  0.44048372  0.12955569  0.95706700    -0.29100
C55         C  0.41756391  0.13400764  0.99984387    -0.05200
C56         C  0.41954843  0.16054547  0.01753354     0.07000
C57         C  0.44416964  0.17145134  0.98215683     0.00800
H58         H  0.40359249  0.11825710  0.02048269     0.08400
H59         H  0.45525971  0.19110063  0.98602570     0.07500
N60         N  0.99299456  0.05822768  0.27382832    -0.36300
N61         N  0.02755401  0.05859261  0.26855698    -0.28500
C62         C  0.04147556  0.03483481  0.28570709    -0.03700
C63         C  0.01434453  0.01891369  0.30288753     0.04900
C64         C  0.48400228  0.03433162  0.29441004     0.03000
H65         H  0.06935305  0.03016732  0.28882221     0.08100
H66         H  0.45754387  0.02931725  0.30611836     0.06900
N67         N  0.34018031  0.36809459  0.12662107    -0.27500
N68         N  0.32473084  0.34511052  0.11692315    -0.35300
C69         C  0.33995196  0.32591202  0.14946969     0.00800
C70         C  0.36600658  0.33742821  0.18162693     0.06900
C71         C  0.36591625  0.36401931  0.16481394    -0.06200
H72         H  0.32962992  0.30612563  0.15488832     0.07500
H73         H  0.38034995  0.38012349  0.18396703     0.08700
Cu74       Cu  0.27555929  0.34282260  0.08158718     0.44200
Cu75       Cu  0.31789798  0.40581990  0.11051934     0.42000
Cu76       Cu  0.22499975  0.40594547  0.09695141     0.43900
N77         N  0.22259265  0.34511195  0.09792115    -0.34900
N78         N  0.20423854  0.36796872  0.10368442    -0.29100
C79         C  0.17503818  0.36335441  0.13352441    -0.05200
C80         C  0.17565594  0.33658221  0.14936488     0.07000
C81         C  0.20579847  0.32555594  0.12470752     0.00800
H82         H  0.15770891  0.37924698  0.14988464     0.08400
H83         H  0.21778599  0.30610414  0.13394855     0.07500
N84         N  0.25219294  0.44068143  0.11451659    -0.36300
N85         N  0.28675575  0.44060615  0.11968799    -0.28500
C86         C  0.29643145  0.46503338  0.13782919    -0.03700
C87         C  0.26647213  0.48129889  0.14439821     0.04900
C88         C  0.23892187  0.46519939  0.12904658     0.03000
H89         H  0.32314839  0.47021357  0.14767939     0.08100
H90         H  0.21116805  0.47053645  0.13072043     0.06900
N91         N  0.32475122  0.12213815  0.23197829    -0.27500
N92         N  0.30575228  0.14375777  0.24674847    -0.35300
C93         C  0.32294075  0.16573361  0.23201283     0.00800
C94         C  0.35383833  0.15791722  0.20431841     0.06900
C95         C  0.35451654  0.12998924  0.20730065    -0.06200
H96         H  0.31093189  0.18570653  0.23280484     0.07500
H97         H  0.37281321  0.11618078  0.18605764     0.08700
Cu98       Cu  0.25196036  0.14423324  0.25386305     0.44200
Cu99       Cu  0.30449365  0.08386332  0.22300976     0.42000
Cu100      Cu  0.21200134  0.08452273  0.19742745     0.43900
N101        N  0.20599475  0.14508104  0.20762750    -0.34900
N102        N  0.19152564  0.12322230  0.18725461    -0.29100
C103        C  0.16806750  0.13032784  0.14711340    -0.05200
C104        C  0.16825023  0.15797113  0.14072996     0.07000
C105        C  0.19240978  0.16665789  0.18030976     0.00800
H106        H  0.15491589  0.11596829  0.12040597     0.08400
H107        H  0.20242795  0.18665196  0.18443469     0.07500
N108        N  0.24344231  0.04989786  0.19016875    -0.36300
N109        N  0.27778034  0.04961462  0.19862947    -0.28500
C110        C  0.29127888  0.02507761  0.18457894    -0.03700
C111        C  0.26407828  0.00921461  0.16641866     0.04900
C112        C  0.23413678  0.02561820  0.17075507     0.03000
H113        H  0.31895282  0.01946817  0.18588343     0.08100
H114        H  0.20770360  0.02062660  0.15861315     0.06900
C115        C  0.12177331  0.17982642  0.00279373     0.86300
C116        C  0.15409594  0.19432451  0.98298041    -0.54000
C117        C  0.17184093  0.20715736  0.02537970     0.09200
C118        C  0.15489471  0.20406687  0.08521339     0.20200
C119        C  0.13501983  0.16103877  0.04985953    -0.54700
C120        C  0.15255784  0.17341454  0.09292350     0.09300
C121        C  0.09914576  0.20132798  0.03510323    -0.54200
C122        C  0.11574815  0.21393174  0.07934582     0.09900
H123        H  0.16049780  0.19648827  0.93815712     0.14400
H124        H  0.16963955  0.21398860  0.11979585     0.00100
H125        H  0.13060967  0.13970764  0.04945540     0.14700
H126        H  0.07187488  0.20557081  0.02466758     0.14500
C127        C  0.41775260  0.32707305  0.32052704     0.86300
C128        C  0.39947567  0.34218069  0.27176596    -0.54000
C129        C  0.38348324  0.32617536  0.23291087     0.09200
C130        C  0.38660269  0.29608873  0.24712131     0.20200
C131        C  0.38950279  0.30997449  0.34689571    -0.54700
C132        C  0.37285737  0.29369031  0.30897134     0.09300
C133        C  0.44296577  0.30676515  0.28995437    -0.54200
C134        C  0.42695797  0.29033848  0.25117540     0.09900
H135        H  0.39979335  0.36372258  0.26730158     0.14400
H136        H  0.37251509  0.28347574  0.21605609     0.00100
H137        H  0.38456382  0.30957377  0.39247908     0.14700
H138        H  0.47089797  0.30539100  0.29903946     0.14500
C139        C  0.12962034  0.32769679  0.29258446     0.86300
C140        C  0.16160774  0.31191752  0.31452198    -0.54000
C141        C  0.17721877  0.29518451  0.27522617     0.09200
C142        C  0.15873081  0.29576457  0.21629950     0.20200
C143        C  0.14229293  0.34216557  0.23969481    -0.54700
C144        C  0.15773436  0.32567268  0.19962674     0.09300
C145        C  0.10485518  0.30639880  0.26861679    -0.54200
C146        C  0.11945538  0.28935169  0.22758029     0.09900
H147        H  0.16903896  0.31183378  0.35923849     0.14400
H148        H  0.17278086  0.28285960  0.18459179     0.00100
H149        H  0.14021237  0.36370500  0.23486973     0.14700
H150        H  0.07791190  0.30587461  0.28299206     0.14500
C151        C  0.37252314  0.17450753  0.16010878     0.86300
C152        C  0.38748474  0.15806700  0.10953163    -0.54000
C153        C  0.40436133  0.17279928  0.07003979     0.09200
C154        C  0.40507167  0.20295268  0.08494694     0.20200
C155        C  0.40354716  0.18963721  0.18437091    -0.54700
C156        C  0.42116364  0.20442509  0.14548201     0.09300
C157        C  0.34898608  0.19637732  0.13178009    -0.54200
C158        C  0.36559205  0.21134535  0.09193974     0.09900
H159        H  0.38432690  0.13667709  0.10445720     0.14000
H160        H  0.41947043  0.21463949  0.05316310     0.00100
H161        H  0.40865636  0.19095550  0.22966128     0.14700
H162        H  0.32139269  0.19943638  0.14188049     0.14500
C163        C  0.50125670  0.24815575  0.17652019     0.02900
C164        C  0.48076507  0.22661335  0.15554427    -0.13200
C165        C  0.44405054  0.22640309  0.16507849     0.00400
C166        C  0.42778532  0.24694999  0.19716477    -0.11700
C167        C  0.44629823  0.26879000  0.21727078     0.02900
C168        C  0.48269326  0.26960786  0.20538553    -0.11200
H169        H  0.49284728  0.20959411  0.13337012     0.08500
H170        H  0.40021112  0.24532210  0.20707938     0.06000
H171        H  0.49610230  0.28745817  0.21787013     0.05900
C172        C  0.04137409  0.24869317  0.16894617     0.02900
C173        C  0.05952612  0.23207683  0.12846369    -0.13200
C174        C  0.09652568  0.23287692  0.12076617     0.00400
C175        C  0.11533166  0.25149260  0.15335762    -0.11700
C176        C  0.09873795  0.26848816  0.19458400     0.02900
C177        C  0.06202282  0.26597963  0.20282478    -0.11200
H178        H  0.04489533  0.21820142  0.10313730     0.08500
H179        H  0.14304978  0.25267377  0.14571595     0.06000
H180        H  0.04934970  0.27741065  0.23637975     0.05900
C181        C  0.29292741  0.25086916  0.67594774     0.02900
C182        C  0.31436770  0.27044064  0.65030354    -0.13200
C183        C  0.35054481  0.27172817  0.66295058     0.00400
C184        C  0.36614831  0.25281598  0.36604652    -0.11700
C185        C  0.34689285  0.23229306  0.38965121     0.02900
C186        C  0.31030989  0.23177372  0.37849269    -0.11200
H187        H  0.30350593  0.28515647  0.62126608     0.08500
H188        H  0.39368247  0.25454874  0.37644636     0.06000
H189        H  0.29571469  0.21619758  0.39786693     0.05900
C190        C  0.25297322  0.25050628  0.33289411     0.02900
C191        C  0.23206677  0.22872413  0.35124346    -0.13200
C192        C  0.19523524  0.22919949  0.34300168     0.00400
C193        C  0.17917280  0.25050513  0.31456714    -0.11700
C194        C  0.19819081  0.27192466  0.62938613     0.02900
C195        C  0.23465414  0.27243937  0.63955678    -0.11200
H196        H  0.24361563  0.21108225  0.37086112     0.08500
H197        H  0.15089791  0.25079921  0.30823458     0.06000
H198        H  0.24787096  0.29036604  0.62769059     0.05900
N199        N  0.09068081  0.38216767  0.38148373    -0.27500
N200        N  0.07705921  0.36101968  0.73894517    -0.35300
C201        C  0.09114460  0.33858433  0.71463243     0.00800
C202        C  0.11371815  0.34591614  0.67170603     0.06900
C203        C  0.11349160  0.37372287  0.34105567    -0.06200
H204        H  0.08194253  0.31860329  0.72210654     0.07500
H205        H  0.12615174  0.38716665  0.31231079     0.08700
Cu206      Cu  0.02899192  0.36211258  0.77908961     0.44200
Cu207      Cu  0.06961201  0.42096715  0.38505264     0.42000
Cu208      Cu  0.47767177  0.42038291  0.39630383     0.43900
N209        N  0.47759736  0.36051003  0.75241623    -0.34900
N210        N  0.45956489  0.38158022  0.39956602    -0.29100
C211        C  0.43326767  0.37298375  0.36678104    -0.05200
C212        C  0.43527895  0.34511941  0.69712067     0.07000
C213        C  0.46316610  0.33798439  0.73234166     0.00800
H214        H  0.41652906  0.38639439  0.34219752     0.08400
H215        H  0.47519534  0.31811239  0.73626536     0.07500
N216        N  0.00364434  0.45415195  0.37045105    -0.36300
N217        N  0.03822050  0.45439412  0.36633956    -0.28500
C218        C  0.04749335  0.47755833  0.34243222    -0.03700
C219        C  0.01717697  0.49258778  0.33082014     0.04900
C220        C  0.48986805  0.47716997  0.34930232     0.03000
H221        H  0.07419146  0.48259018  0.33229978     0.08100
H222        H  0.46201795  0.48184745  0.34566621     0.06900
N223        N  0.07450783  0.13146928  0.24962841    -0.27500
N224        N  0.05532962  0.15357726  0.24070382    -0.35300
C225        C  0.07216095  0.17472653  0.26190686     0.00800
C226        C  0.10305998  0.16567310  0.28757832     0.06900
C227        C  0.10411538  0.13813784  0.27668611    -0.06200
H228        H  0.05994476  0.19453675  0.26635937     0.07500
H229        H  0.12248212  0.12345295  0.29429706     0.08700
Cu230      Cu  0.00168592  0.15398620  0.23260990     0.44200
Cu231      Cu  0.05432204  0.09313323  0.58257182     0.42000
Cu232      Cu  0.46046474  0.09203749  0.60027872     0.43900
N233        N  0.45617102  0.15215670  0.27926148    -0.34900
N234        N  0.44048389  0.12955402  0.29040579    -0.29100
C235        C  0.41756446  0.13400627  0.33318307    -0.05200
C236        C  0.41954835  0.16054448  0.35087059     0.07000
C237        C  0.44416872  0.17145024  0.31549202     0.00800
H238        H  0.40359389  0.11825577  0.35382367     0.08400
H239        H  0.45525826  0.19109979  0.31935906     0.07500
N240        N  0.99299654  0.05822851  0.60716613    -0.36300
N241        N  0.02755597  0.05859351  0.60189454    -0.28500
C242        C  0.04147774  0.03483598  0.61904586    -0.03700
C243        C  0.01434683  0.01891496  0.63622731     0.04900
C244        C  0.48400446  0.03433266  0.62774924     0.03000
H245        H  0.06935528  0.03016859  0.62216081     0.08100
H246        H  0.45754611  0.02931828  0.63945777     0.06900
N247        N  0.34018058  0.36809569  0.45995419    -0.27500
N248        N  0.32473128  0.34511156  0.45025614    -0.35300
C249        C  0.33995219  0.32591315  0.48280320     0.00800
C250        C  0.36600653  0.33742949  0.51496087     0.06900
C251        C  0.36591619  0.36402057  0.49814770    -0.06200
H252        H  0.32963025  0.30612669  0.48822164     0.07500
H253        H  0.38034976  0.38012480  0.51730083     0.08700
Cu254      Cu  0.27556011  0.34282357  0.41491872     0.44200
Cu255      Cu  0.31789839  0.40582085  0.44385072     0.42000
Cu256      Cu  0.22500032  0.40594650  0.43028116     0.43900
N257        N  0.22259345  0.34511294  0.43125272    -0.34900
N258        N  0.20423930  0.36796970  0.43701580    -0.29100
C259        C  0.17503899  0.36335537  0.46685597    -0.05200
C260        C  0.17565675  0.33658317  0.48269649     0.07000
C261        C  0.20579932  0.32555694  0.45803926     0.00800
H262        H  0.15770965  0.37924789  0.48321605     0.08400
H263        H  0.21778684  0.30610514  0.46728028     0.07500
N264        N  0.25219352  0.44068251  0.44784628    -0.36300
N265        N  0.28675629  0.44060717  0.45301795    -0.28500
C266        C  0.29643196  0.46503436  0.47115936    -0.03700
C267        C  0.26647274  0.48129990  0.47772840     0.04900
C268        C  0.23892253  0.46520045  0.46237647     0.03000
H269        H  0.32314880  0.47021445  0.48101000     0.08100
H270        H  0.21116875  0.47053751  0.46405048     0.06900
N271        N  0.32475151  0.12213847  0.56531518    -0.27500
N272        N  0.30575211  0.14375801  0.58008421    -0.35300
C273        C  0.32294066  0.16573390  0.56534912     0.00800
C274        C  0.35383875  0.15791768  0.53765603     0.06900
C275        C  0.35451719  0.12998970  0.54063888    -0.06200
H276        H  0.31093155  0.18570671  0.56614030     0.07500
H277        H  0.37281429  0.11618129  0.51939681     0.08700
Cu278      Cu  0.25196002  0.14423318  0.58719620     0.44200
Cu279      Cu  0.30449414  0.08386354  0.55634559     0.42000
Cu280      Cu  0.21200133  0.08452288  0.53076074     0.43900
N281        N  0.20599400  0.14508095  0.54096155    -0.34900
N282        N  0.19152493  0.12322218  0.52058885    -0.29100
C283        C  0.16806632  0.13032759  0.48044824    -0.05200
C284        C  0.16824865  0.15797088  0.47406500     0.07000
C285        C  0.19240845  0.16665772  0.51364430     0.00800
H286        H  0.15491478  0.11596796  0.45374083     0.08400
H287        H  0.20242647  0.18665180  0.51776902     0.07500
N288        N  0.24344287  0.04989846  0.52350104    -0.36300
N289        N  0.27778081  0.04961517  0.53196266    -0.28500
C290        C  0.29127935  0.02507827  0.51791126    -0.03700
C291        C  0.26407896  0.00921546  0.49974952     0.04900
C292        C  0.23413751  0.02561903  0.50408593     0.03000
H293        H  0.31895319  0.01946877  0.51921637     0.08100
H294        H  0.20770443  0.02062755  0.49194325     0.06900
C295        C  0.12177247  0.17982571  0.33612788     0.86300
C296        C  0.15409573  0.19432304  0.31631475    -0.54000
C297        C  0.17184072  0.20715594  0.35871399     0.09200
C298        C  0.15489386  0.20406630  0.41854733     0.20200
C299        C  0.13501806  0.16103831  0.38319472    -0.54700
C300        C  0.15255616  0.17341415  0.42625848     0.09300
C301        C  0.09914530  0.20132792  0.36843613    -0.54200
C302        C  0.11574766  0.21393175  0.41267863     0.09900
H303        H  0.16049799  0.19648639  0.27149153     0.14400
H304        H  0.16963870  0.21398809  0.45312970     0.00100
H305        H  0.13060741  0.13970726  0.38279117     0.14700
H306        H  0.07187464  0.20557112  0.35799992     0.14500
C307        C  0.41775323  0.32707426  0.65386031     0.86300
C308        C  0.39947592  0.34218199  0.60509969    -0.54000
C309        C  0.38348331  0.32617668  0.56624473     0.09200
C310        C  0.38660287  0.29609003  0.58045497     0.20200
C311        C  0.38950359  0.30997566  0.68022936    -0.54700
C312        C  0.37285793  0.29369155  0.64230517     0.09300
C313        C  0.44296618  0.30676639  0.62328707    -0.54200
C314        C  0.42695814  0.29033974  0.58450832     0.09900
H315        H  0.39979352  0.36372390  0.60063551     0.14400
H316        H  0.37251513  0.28347704  0.54938994     0.00100
H317        H  0.38456489  0.30957490  0.72581278     0.14700
H318        H  0.47089844  0.30539221  0.63237172     0.14500
C319        C  0.12962101  0.32769739  0.62591584     0.86300
C320        C  0.16160844  0.31191810  0.64785302    -0.54000
C321        C  0.17721934  0.29518505  0.60855716     0.09200
C322        C  0.15873125  0.29576527  0.54963053     0.20200
C323        C  0.14229348  0.34216624  0.57302629    -0.54700
C324        C  0.15773490  0.32567346  0.53295803     0.09300
C325        C  0.10485582  0.30639949  0.60194817    -0.54200
C326        C  0.11945581  0.28935243  0.56091147     0.09900
H327        H  0.16903984  0.31183440  0.69256946     0.14400
H328        H  0.17278110  0.28286033  0.51792258     0.00100
H329        H  0.14021298  0.36370566  0.56820152     0.14700
H330        H  0.07791264  0.30587526  0.61632375     0.14500
C331        C  0.37252342  0.17450779  0.49344572     0.86300
C332        C  0.38748524  0.15806683  0.44286932    -0.54000
C333        C  0.40436156  0.17279878  0.40337662     0.09200
C334        C  0.40507155  0.20295235  0.41828230     0.20200
C335        C  0.40354725  0.18963804  0.51770697    -0.54700
C336        C  0.42116352  0.20442561  0.47881723     0.09300
C337        C  0.34898608  0.19637711  0.46511596    -0.54200
C338        C  0.36559185  0.21134483  0.42527484     0.09900
H339        H  0.38432752  0.13667686  0.43779585     0.14000
H340        H  0.41947016  0.21463888  0.38649782     0.00100
H341        H  0.40865640  0.19095695  0.56299725     0.14700
H342        H  0.32139265  0.19943611  0.47521626     0.14500
C343        C  0.50125653  0.24815685  0.50985256     0.02900
C344        C  0.48076480  0.22661431  0.48887760    -0.13200
C345        C  0.44405037  0.22640396  0.49841236     0.00400
C346        C  0.42778531  0.24695108  0.53049807    -0.11700
C347        C  0.44629823  0.26879120  0.55060349     0.02900
C348        C  0.48269319  0.26960906  0.53871772    -0.11200
H349        H  0.49284695  0.20959498  0.46670388     0.08500
H350        H  0.40021122  0.24532324  0.54041302     0.06000
H351        H  0.49610230  0.28745943  0.55120187     0.05900
C352        C  0.04137395  0.24869420  0.50227797     0.02900
C353        C  0.05952577  0.23207763  0.46179570    -0.13200
C354        C  0.09652534  0.23287741  0.45409825     0.00400
C355        C  0.11533152  0.25149307  0.48668945    -0.11700
C356        C  0.09873809  0.26848896  0.52791539     0.02900
C357        C  0.06202292  0.26598072  0.53615603    -0.11200
H358        H  0.04489482  0.21820221  0.43646950     0.08500
H359        H  0.14304965  0.25267397  0.47904802     0.06000
H360        H  0.04934990  0.27741201  0.56971056     0.05900
C361        C  0.29292726  0.25086943  0.00928056     0.02900
C362        C  0.31436766  0.27044102  0.98363695    -0.13200
C363        C  0.35054485  0.27172830  0.99628382     0.00400
C364        C  0.36614881  0.25281731  0.69938053    -0.11700
C365        C  0.34689343  0.23229422  0.72298458     0.02900
C366        C  0.31031053  0.23177463  0.71182551    -0.11200
H367        H  0.30350595  0.28515710  0.95460001     0.08500
H368        H  0.39368291  0.25455014  0.70978078     0.06000
H369        H  0.29571551  0.21619818  0.73119912     0.05900
C370        C  0.25297382  0.25050723  0.66622682     0.02900
C371        C  0.23206727  0.22872537  0.68457768    -0.13200
C372        C  0.19523577  0.22920064  0.67633576     0.00400
C373        C  0.17917336  0.25050592  0.64789982    -0.11700
C374        C  0.19819077  0.27192538  0.96271912     0.02900
C375        C  0.23465408  0.27243985  0.97288996    -0.11200
H376        H  0.24361599  0.21108374  0.70419663     0.08500
H377        H  0.15089847  0.25079993  0.64156723     0.06000
H378        H  0.24787100  0.29036651  0.96102424     0.05900
N379        N  0.09068215  0.38216790  0.71481704    -0.27500
N380        N  0.07705992  0.36102235  0.07227529    -0.35300
C381        C  0.09114596  0.33858680  0.04796427     0.00800
C382        C  0.11371923  0.34591832  0.00503716     0.06900
C383        C  0.11349263  0.37372327  0.67438836    -0.06200
H384        H  0.08194439  0.31860572  0.05543976     0.07500
H385        H  0.12615290  0.38716716  0.64564385     0.08700
Cu386      Cu  0.02899270  0.36211513  0.11241978     0.44200
Cu387      Cu  0.06961420  0.42096760  0.71838860     0.42000
Cu388      Cu  0.47767392  0.42038358  0.72964017     0.43900
N389        N  0.47759805  0.36051163  0.08574776    -0.34900
N390        N  0.45956654  0.38158095  0.73289972    -0.29100
C391        C  0.43326928  0.37298480  0.70011440    -0.05200
C392        C  0.43527883  0.34511995  0.03045521     0.07000
C393        C  0.46316709  0.33798557  0.06567459     0.00800
H394        H  0.41653090  0.38639564  0.67553103     0.08400
H395        H  0.47519712  0.31811376  0.06959803     0.07500
N396        N  0.00364675  0.45415297  0.70378993    -0.36300
N397        N  0.03822292  0.45439505  0.69967803    -0.28500
C398        C  0.04749583  0.47755943  0.67577144    -0.03700
C399        C  0.01717942  0.49258909  0.66416032     0.04900
C400        C  0.48987048  0.47717123  0.68264234     0.03000
H401        H  0.07419393  0.48259118  0.66563838     0.08100
H402        H  0.46202037  0.48184874  0.67900636     0.06900
N403        N  0.07450931  0.13146997  0.58296288    -0.27500
N404        N  0.05533122  0.15357799  0.57403796    -0.35300
C405        C  0.07216254  0.17472725  0.59524112     0.00800
C406        C  0.10306134  0.16567370  0.62091315     0.06900
C407        C  0.10411671  0.13813845  0.61002105    -0.06200
H408        H  0.05994640  0.19453752  0.59969350     0.07500
H409        H  0.12248321  0.12345352  0.62763241     0.08700
Cu410      Cu  0.00168746  0.15398701  0.56594449     0.44200
Cu411      Cu  0.05432000  0.09313432  0.91589908     0.42000
Cu412      Cu  0.46046184  0.09203858  0.93360170     0.43900
N413        N  0.45617242  0.15215741  0.61259593    -0.34900
N414        N  0.44048538  0.12955471  0.62374040    -0.29100
C415        C  0.41756559  0.13400706  0.66651712    -0.05200
C416        C  0.41954911  0.16054536  0.68420415     0.07000
C417        C  0.44416970  0.17145106  0.64882590     0.00800
H418        H  0.40359500  0.11825660  0.68715775     0.08400
H419        H  0.45525905  0.19110070  0.65269272     0.07500
N420        N  0.99299343  0.05822935  0.94048686    -0.36300
N421        N  0.02755294  0.05859442  0.93521652    -0.28500
C422        C  0.04147448  0.03483666  0.95236669    -0.03700
C423        C  0.01434343  0.01891542  0.96954639     0.04900
C424        C  0.48400115  0.03433320  0.96106822     0.03000
H425        H  0.06935199  0.03016938  0.95548291     0.08100
H426        H  0.45754277  0.02931874  0.97277616     0.06900
N427        N  0.34018260  0.36809672  0.79328790    -0.27500
N428        N  0.32473286  0.34511278  0.78358968    -0.35300
C429        C  0.33995328  0.32591416  0.81613671     0.00800
C430        C  0.36600780  0.33743009  0.84829453     0.06900
C431        C  0.36591813  0.36402115  0.83148136    -0.06200
H432        H  0.32963084  0.30612788  0.82155513     0.07500
H433        H  0.38035201  0.38012515  0.85063463     0.08700
Cu434      Cu  0.27556180  0.34282514  0.74825212     0.44200
Cu435      Cu  0.31790088  0.40582226  0.77718561     0.42000
Cu436      Cu  0.22500244  0.40594764  0.76361542     0.43900
N437        N  0.22259513  0.34511414  0.76458540    -0.34900
N438        N  0.20424095  0.36797091  0.77034853    -0.29100
C439        C  0.17504046  0.36335657  0.80018823    -0.05200
C440        C  0.17565826  0.33658426  0.81602859     0.07000
C441        C  0.20580097  0.32555801  0.79137156     0.00800
H442        H  0.15771102  0.37924915  0.81654826     0.08400
H443        H  0.21778855  0.30610618  0.80061272     0.07500
N444        N  0.25219553  0.44068362  0.78118132    -0.36300
N445        N  0.28675829  0.44060846  0.78635338    -0.28500
C446        C  0.29643359  0.46503571  0.80449517    -0.03700
C447        C  0.26647413  0.48130106  0.81106406     0.04900
C448        C  0.23892418  0.46520146  0.79571159     0.03000
H449        H  0.32315033  0.47021597  0.81434615     0.08100
H450        H  0.21117031  0.47053833  0.79738528     0.06900
N451        N  0.32475172  0.12213992  0.89864921    -0.27500
N452        N  0.30575252  0.14375952  0.91341846    -0.35300
C453        C  0.32294105  0.16573532  0.89868274     0.00800
C454        C  0.35383894  0.15791898  0.87098922     0.06900
C455        C  0.35451725  0.12999103  0.87397225    -0.06200
H456        H  0.31093209  0.18570815  0.89947403     0.07500
H457        H  0.37281419  0.11618252  0.85273006     0.08700
Cu458      Cu  0.25196058  0.14423458  0.92053239     0.44200
Cu459      Cu  0.30449423  0.08386500  0.88968062     0.42000
Cu460      Cu  0.21200127  0.08452372  0.86409840     0.43900
N461        N  0.20599468  0.14508204  0.87429754    -0.34900
N462        N  0.19152534  0.12322322  0.85392550    -0.29100
C463        C  0.16806699  0.13032857  0.81378439    -0.05200
C464        C  0.16824985  0.15797182  0.80740017     0.07000
C465        C  0.19240968  0.16665874  0.84697934     0.00800
H466        H  0.15491523  0.11596887  0.78707741     0.08400
H467        H  0.20242806  0.18665276  0.85110342     0.07500
N468        N  0.24344313  0.04989937  0.85683797    -0.36300
N469        N  0.27778113  0.04961636  0.86529889    -0.28500
C470        C  0.29127999  0.02507962  0.85124709    -0.03700
C471        C  0.26407980  0.00921656  0.83308565     0.04900
C472        C  0.23413811  0.02561985  0.83742276     0.03000
H473        H  0.31895394  0.01947042  0.85255149     0.08100
H474        H  0.20770508  0.02062814  0.82528041     0.06900
C475        C  0.12177365  0.17982632  0.66946281     0.86300
C476        C  0.15409659  0.19432394  0.64964960    -0.54000
C477        C  0.17184142  0.20715705  0.69204862     0.09200
C478        C  0.15489479  0.20406722  0.75188208     0.20200
C479        C  0.13501959  0.16103899  0.71652952    -0.54700
C480        C  0.15255752  0.17341498  0.75959328     0.09300
C481        C  0.09914619  0.20132832  0.70177113    -0.54200
C482        C  0.11574844  0.21393235  0.74601346     0.09900
H483        H  0.16049875  0.19648729  0.60482639     0.14400
H484        H  0.16963952  0.21398914  0.78646439     0.00100
H485        H  0.13060924  0.13970789  0.71612601     0.14700
H486        H  0.07187547  0.20557131  0.69133493     0.14500
C487        C  0.41775339  0.32707455  0.98719483     0.86300
C488        C  0.39947632  0.34218228  0.93843404    -0.54000
C489        C  0.38348392  0.32617707  0.89957875     0.09200
C490        C  0.38660333  0.29609041  0.91378880     0.20200
C491        C  0.38950366  0.30997584  0.01356343    -0.54700
C492        C  0.37285814  0.29369176  0.97563889     0.09300
C493        C  0.44296650  0.30676675  0.95662172    -0.54200
C494        C  0.42695861  0.29034017  0.91784264     0.09900
H495        H  0.39979405  0.36372415  0.93396976     0.14400
H496        H  0.37251572  0.28347749  0.88272336     0.00100
H497        H  0.38456484  0.30957496  0.05914679     0.14700
H498        H  0.47089874  0.30539260  0.96570649     0.14500
C499        C  0.12962204  0.32769910  0.95924768     0.86300
C500        C  0.16160891  0.31191929  0.98118548    -0.54000
C501        C  0.17721967  0.29518597  0.94188997     0.09200
C502        C  0.15873204  0.29576646  0.88296299     0.20200
C503        C  0.14229529  0.34216769  0.90635834    -0.54700
C504        C  0.15773644  0.32567466  0.86629032     0.09300
C505        C  0.10485643  0.30640153  0.93527972    -0.54200
C506        C  0.11945634  0.28935415  0.89424345     0.09900
H507        H  0.16904002  0.31183554  0.02590196     0.14400
H508        H  0.17278187  0.28286134  0.85125530     0.00100
H509        H  0.14021535  0.36370714  0.90153333     0.14700
H510        H  0.07791312  0.30587768  0.94965491     0.14500
C511        C  0.37252370  0.17450895  0.82677885     0.86300
C512        C  0.38748534  0.15806790  0.77620239    -0.54000
C513        C  0.40436188  0.17279979  0.73670976     0.09200
C514        C  0.40507209  0.20295338  0.75161545     0.20200
C515        C  0.40354766  0.18963904  0.85104005    -0.54700
C516        C  0.42116411  0.20442652  0.81215037     0.09300
C517        C  0.34898657  0.19637839  0.79844925    -0.54200
C518        C  0.36559242  0.21134601  0.75860811     0.09900
H519        H  0.38432750  0.13667790  0.77112896     0.14000
H520        H  0.41947072  0.21463991  0.71983095     0.00100
H521        H  0.40865662  0.19095809  0.89633033     0.14700
H522        H  0.32139318  0.19943754  0.80854967     0.14500
C523        C  0.50125711  0.24815781  0.84318604     0.02900
C524        C  0.48076546  0.22661521  0.82221071    -0.13200
C525        C  0.44405100  0.22640479  0.83174573     0.00400
C526        C  0.42778590  0.24695171  0.86383209    -0.11700
C527        C  0.44629878  0.26879183  0.88393758     0.02900
C528        C  0.48269369  0.26960991  0.87205155    -0.11200
H529        H  0.49284760  0.20959593  0.80003654     0.08500
H530        H  0.40021182  0.24532372  0.87374736     0.06000
H531        H  0.49610262  0.28746036  0.88453581     0.05900
C532        C  0.04137453  0.24869531  0.83561147     0.02900
C533        C  0.05952650  0.23207836  0.79513007    -0.13200
C534        C  0.09652605  0.23287823  0.78743248     0.00400
C535        C  0.11533216  0.25149430  0.82002267    -0.11700
C536        C  0.09873860  0.26849052  0.86124791     0.02900
C537        C  0.06202342  0.26598227  0.86948867    -0.11200
H538        H  0.04489574  0.21820256  0.76980460     0.08500
H539        H  0.14305031  0.25267522  0.81238098     0.06000
H540        H  0.04935043  0.27741387  0.90304273     0.05900
C541        C  0.29292679  0.75086819  0.34261481     0.02900
C542        C  0.31436707  0.77043949  0.31697025    -0.13200
C543        C  0.35054425  0.77172690  0.32961676     0.00400
C544        C  0.36614877  0.75281706  0.03271304    -0.11700
C545        C  0.34689321  0.73229394  0.05631675     0.02900
C546        C  0.31031030  0.73177466  0.04515777    -0.11200
H547        H  0.30350523  0.78515527  0.28793285     0.08500
H548        H  0.39368292  0.75454968  0.04311313     0.06000
H549        H  0.29571513  0.71619825  0.06453104     0.05900
C550        C  0.25297365  0.75050760  0.99955942     0.02900
C551        C  0.23206693  0.72872567  0.01790938    -0.13200
C552        C  0.19523541  0.72920104  0.00966745     0.00400
C553        C  0.17917315  0.75050661  0.98123216    -0.11700
C554        C  0.19819017  0.77192410  0.29605489     0.02900
C555        C  0.23465346  0.77243873  0.30622566    -0.11200
H556        H  0.24361557  0.71108391  0.03752771     0.08500
H557        H  0.15089826  0.75080077  0.97489945     0.06000
H558        H  0.24787023  0.79036554  0.29436064     0.05900
N559        N  0.09068218  0.88217049  0.04814540    -0.27500
N560        N  0.07705797  0.86101951  0.40561251    -0.35300
C561        C  0.09114365  0.83858399  0.38130073     0.00800
C562        C  0.11371731  0.84591567  0.33837427     0.06900
C563        C  0.11349288  0.87372559  0.00771731    -0.06200
H564        H  0.08194167  0.81860291  0.38877537     0.07500
H565        H  0.12615253  0.88716930  0.97897167     0.08700
Cu566      Cu  0.02899054  0.86211261  0.44575646     0.44200
Cu567      Cu  0.06961268  0.92096979  0.05171310     0.42000
Cu568      Cu  0.47767267  0.92038498  0.06296765     0.43900
N569        N  0.47759613  0.86050954  0.41908279    -0.34900
N570        N  0.45956618  0.88158214  0.06623169    -0.29100
C571        C  0.43326831  0.87298538  0.03344848    -0.05200
C572        C  0.43527793  0.84511835  0.36378755     0.07000
C573        C  0.46316527  0.83798368  0.39900848     0.00800
H574        H  0.41652900  0.88639587  0.00886576     0.08400
H575        H  0.47519489  0.81811179  0.40293234     0.07500
N576        N  0.00364442  0.95415407  0.03711262    -0.36300
N577        N  0.03822052  0.95439640  0.03299987    -0.28500
C578        C  0.04749289  0.97756047  0.00909136    -0.03700
C579        C  0.01717621  0.99258967  0.99747980     0.04900
C580        C  0.48986762  0.97717188  0.01596351     0.03000
H581        H  0.07419086  0.98259237  0.99895777     0.08100
H582        H  0.46201742  0.98184922  0.01232830     0.06900
N583        N  0.07450823  0.63147074  0.91629275    -0.27500
N584        N  0.05533056  0.65357897  0.90736817    -0.35300
C585        C  0.07216215  0.67472797  0.92857195     0.00800
C586        C  0.10306077  0.66567401  0.95424400     0.06900
C587        C  0.10411565  0.63813877  0.94335145    -0.06200
H588        H  0.05994633  0.69453835  0.93302470     0.07500
H589        H  0.12248189  0.62345355  0.96096249     0.08700
Cu590      Cu  0.00168686  0.65398819  0.89927410     0.44200
Cu591      Cu  0.05432071  0.59313242  0.24923651     0.42000
Cu592      Cu  0.46046302  0.59203689  0.26694294     0.43900
N593        N  0.45617166  0.65215830  0.94592503    -0.34900
N594        N  0.44048366  0.62955572  0.95706699    -0.29100
C595        C  0.41756388  0.63400766  0.99984388    -0.05200
C596        C  0.41954842  0.66054551  0.01753355     0.07000
C597        C  0.44416963  0.67145142  0.98215682     0.00800
H598        H  0.40359249  0.61825712  0.02048274     0.08400
H599        H  0.45525972  0.69110074  0.98602569     0.07500
N600        N  0.99299462  0.55822773  0.27382836    -0.36300
N601        N  0.02755407  0.55859264  0.26855699    -0.28500
C602        C  0.04147561  0.53483482  0.28570706    -0.03700
C603        C  0.01434456  0.51891373  0.30288750     0.04900
C604        C  0.48400238  0.53433167  0.29441005     0.03000
H605        H  0.06935312  0.53016730  0.28882213     0.08100
H606        H  0.45754404  0.52931733  0.30611837     0.06900
N607        N  0.34018036  0.86809460  0.12662103    -0.27500
N608        N  0.32473087  0.84511052  0.11692313    -0.35300
C609        C  0.33995194  0.82591199  0.14946969     0.00800
C610        C  0.36600658  0.83742819  0.18162691     0.06900
C611        C  0.36591628  0.86401930  0.16481389    -0.06200
H612        H  0.32962986  0.80612557  0.15488833     0.07500
H613        H  0.38034998  0.88012346  0.18396697     0.08700
Cu614      Cu  0.27555931  0.84282266  0.08158721     0.44200
Cu615      Cu  0.31789805  0.90581993  0.11051935     0.42000
Cu616      Cu  0.22499986  0.90594545  0.09695142     0.43900
N617        N  0.22259264  0.84511193  0.09792112    -0.34900
N618        N  0.20423852  0.86796873  0.10368444    -0.29100
C619        C  0.17503812  0.86335450  0.13352450    -0.05200
C620        C  0.17565593  0.83658224  0.14936487     0.07000
C621        C  0.20579848  0.82555591  0.12470748     0.00800
H622        H  0.15770884  0.87924713  0.14988482     0.08400
H623        H  0.21778601  0.80610409  0.13394849     0.07500
N624        N  0.25219299  0.94068142  0.11451656    -0.36300
N625        N  0.28675578  0.94060616  0.11968799    -0.28500
C626        C  0.29643141  0.96503341  0.13782921    -0.03700
C627        C  0.26647210  0.98129890  0.14439823     0.04900
C628        C  0.23892193  0.96519936  0.12904656     0.03000
H629        H  0.32314831  0.97021362  0.14767943     0.08100
H630        H  0.21116815  0.97053640  0.13072039     0.06900
N631        N  0.32475128  0.62213812  0.23197830    -0.27500
N632        N  0.30575231  0.64375771  0.24674845    -0.35300
C633        C  0.32294079  0.66573355  0.23201283     0.00800
C634        C  0.35383836  0.65791722  0.20431846     0.06900
C635        C  0.35451660  0.62998926  0.20730076    -0.06200
H636        H  0.31093192  0.68570644  0.23280483     0.07500
H637        H  0.37281329  0.61618084  0.18605783     0.08700
Cu638      Cu  0.25196041  0.64423317  0.25386306     0.44200
Cu639      Cu  0.30449375  0.58386327  0.22300975     0.42000
Cu640      Cu  0.21200131  0.58452268  0.19742748     0.43900
N641        N  0.20599482  0.64508100  0.20762744    -0.34900
N642        N  0.19152570  0.62322227  0.18725456    -0.29100
C643        C  0.16806755  0.63032783  0.14711336    -0.05200
C644        C  0.16825027  0.65797111  0.14072992     0.07000
C645        C  0.19240981  0.66665784  0.18030972     0.00800
H646        H  0.15491591  0.61596829  0.12040595     0.08400
H647        H  0.20242796  0.68665188  0.18443467     0.07500
N648        N  0.24344236  0.54989784  0.19016880    -0.36300
N649        N  0.27778038  0.54961461  0.19862948    -0.28500
C650        C  0.29127884  0.52507761  0.18457890    -0.03700
C651        C  0.26407831  0.50921459  0.16641863     0.04900
C652        C  0.23413682  0.52561817  0.17075509     0.03000
H653        H  0.31895272  0.51946819  0.18588335     0.08100
H654        H  0.20770363  0.52062656  0.15861319     0.06900
C655        C  0.12177334  0.67982640  0.00279374     0.86300
C656        C  0.15409593  0.69432451  0.98298045    -0.54000
C657        C  0.17184091  0.70715737  0.02537972     0.09200
C658        C  0.15489469  0.70406687  0.08521338     0.20200
C659        C  0.13501986  0.66103878  0.04985955    -0.54700
C660        C  0.15255786  0.67341455  0.09292350     0.09300
C661        C  0.09914579  0.70132793  0.03510323    -0.54200
C662        C  0.11574814  0.71393171  0.07934581     0.09900
H663        H  0.16049778  0.69648828  0.93815719     0.14400
H664        H  0.16963951  0.71398859  0.11979583     0.00100
H665        H  0.13060971  0.63970766  0.04945543     0.14700
H666        H  0.07187493  0.70557075  0.02466757     0.14500
C667        C  0.41775262  0.82707306  0.32052702     0.86300
C668        C  0.39947565  0.84218070  0.27176596    -0.54000
C669        C  0.38348323  0.82617537  0.23291088     0.09200
C670        C  0.38660268  0.79608876  0.24712136     0.20200
C671        C  0.38950280  0.80997451  0.34689570    -0.54700
C672        C  0.37285736  0.79369033  0.30897137     0.09300
C673        C  0.44296584  0.80676516  0.28995436    -0.54200
C674        C  0.42695798  0.79033849  0.25117542     0.09900
H675        H  0.39979333  0.86372258  0.26730159     0.14400
H676        H  0.37251509  0.78347576  0.21605616     0.00100
H677        H  0.38456384  0.80957379  0.39247906     0.14700
H678        H  0.47089810  0.80539101  0.29903944     0.14500
C679        C  0.12962027  0.82769677  0.29258443     0.86300
C680        C  0.16160767  0.81191750  0.31452197    -0.54000
C681        C  0.17721874  0.79518450  0.27522618     0.09200
C682        C  0.15873078  0.79576457  0.21629952     0.20200
C683        C  0.14229290  0.84216556  0.23969480    -0.54700
C684        C  0.15773434  0.82567268  0.19962674     0.09300
C685        C  0.10485512  0.80639879  0.26861672    -0.54200
C686        C  0.11945535  0.78935168  0.22758024     0.09900
H687        H  0.16903889  0.81183376  0.35923848     0.14400
H688        H  0.17278082  0.78285961  0.18459182     0.00100
H689        H  0.14021234  0.86370500  0.23486973     0.14700
H690        H  0.07791183  0.80587460  0.28299197     0.14500
C691        C  0.37252313  0.67450752  0.16010880     0.86300
C692        C  0.38748476  0.65806694  0.10953167    -0.54000
C693        C  0.40436133  0.67279926  0.07003984     0.09200
C694        C  0.40507163  0.70295267  0.08494699     0.20200
C695        C  0.40354712  0.68963725  0.18437095    -0.54700
C696        C  0.42116358  0.70442512  0.14548204     0.09300
C697        C  0.34898606  0.69637731  0.13178006    -0.54200
C698        C  0.36559201  0.71134534  0.09193971     0.09900
H699        H  0.38432692  0.63667699  0.10445724     0.14000
H700        H  0.41947038  0.71463948  0.05316318     0.00100
H701        H  0.40865633  0.69095554  0.22966133     0.14700
H702        H  0.32139265  0.69943634  0.14188043     0.14500
C703        C  0.50125666  0.74815575  0.17652018     0.02900
C704        C  0.48076498  0.72661340  0.15554427    -0.13200
C705        C  0.44405051  0.72640312  0.16507847     0.00400
C706        C  0.42778537  0.74694999  0.19716477    -0.11700
C707        C  0.44629822  0.76879000  0.21727080     0.02900
C708        C  0.48269323  0.76960783  0.20538554    -0.11200
H709        H  0.49284715  0.70959419  0.13337012     0.08500
H710        H  0.40021123  0.74532211  0.20707941     0.06000
H711        H  0.49610228  0.78745814  0.21787014     0.05900
C712        C  0.04137408  0.74869316  0.16894615     0.02900
C713        C  0.05952612  0.73207684  0.12846365    -0.13200
C714        C  0.09652564  0.73287690  0.12076614     0.00400
C715        C  0.11533155  0.75149256  0.15335763    -0.11700
C716        C  0.09873791  0.76848814  0.19458399     0.02900
C717        C  0.06202280  0.76597961  0.20282481    -0.11200
H718        H  0.04489532  0.71820145  0.10313723     0.08500
H719        H  0.14304961  0.75267374  0.14571600     0.06000
H720        H  0.04934967  0.77741061  0.23637983     0.05900
C721        C  0.29292742  0.75086917  0.67594776     0.02900
C722        C  0.31436769  0.77044065  0.65030357    -0.13200
C723        C  0.35054481  0.77172815  0.66295054     0.00400
C724        C  0.36614827  0.75281599  0.36604659    -0.11700
C725        C  0.34689283  0.73229309  0.38965124     0.02900
C726        C  0.31030991  0.73177380  0.37849267    -0.11200
H727        H  0.30350591  0.78515649  0.62126617     0.08500
H728        H  0.39368243  0.75454875  0.37644645     0.06000
H729        H  0.29571473  0.71619770  0.39786687     0.05900
C730        C  0.25297321  0.75050630  0.33289414     0.02900
C731        C  0.23206673  0.72872418  0.35124344    -0.13200
C732        C  0.19523520  0.72919950  0.34300168     0.00400
C733        C  0.17917271  0.75050513  0.31456718    -0.11700
C734        C  0.19819082  0.77192459  0.62938609     0.02900
C735        C  0.23465415  0.77243928  0.63955680    -0.11200
H736        H  0.24361559  0.71108233  0.37086105     0.08500
H737        H  0.15089776  0.75079922  0.30823463     0.06000
H738        H  0.24787095  0.79036591  0.62769061     0.05900
N739        N  0.09068075  0.88216764  0.38148372    -0.27500
N740        N  0.07705921  0.86101961  0.73894510    -0.35300
C741        C  0.09114459  0.83858422  0.71463244     0.00800
C742        C  0.11371821  0.84591609  0.67170611     0.06900
C743        C  0.11349153  0.87372284  0.34105566    -0.06200
H744        H  0.08194250  0.81860312  0.72210655     0.07500
H745        H  0.12615168  0.88716663  0.31231078     0.08700
Cu746      Cu  0.02899192  0.86211253  0.77908962     0.44200
Cu747      Cu  0.06961197  0.92096710  0.38505265     0.42000
Cu748      Cu  0.47767187  0.92038288  0.39630382     0.43900
N749        N  0.47759742  0.86051002  0.75241616    -0.34900
N750        N  0.45956496  0.88158023  0.39956599    -0.29100
C751        C  0.43326778  0.87298372  0.36678104    -0.05200
C752        C  0.43527898  0.84511939  0.69712075     0.07000
C753        C  0.46316621  0.83798432  0.73234166     0.00800
H754        H  0.41652922  0.88639433  0.34219755     0.08400
H755        H  0.47519551  0.81811226  0.73626540     0.07500
N756        N  0.00364434  0.95415191  0.37045104    -0.36300
N757        N  0.03822051  0.95439409  0.36633956    -0.28500
C758        C  0.04749346  0.97755831  0.34243224    -0.03700
C759        C  0.01717702  0.99258774  0.33082018     0.04900
C760        C  0.48986807  0.97716993  0.34930230     0.03000
H761        H  0.07419165  0.98259017  0.33229980     0.08100
H762        H  0.46201796  0.98184740  0.34566617     0.06900
N763        N  0.07450785  0.63146927  0.24962839    -0.27500
N764        N  0.05532961  0.65357724  0.24070381    -0.35300
C765        C  0.07216090  0.67472653  0.26190686     0.00800
C766        C  0.10305994  0.66567310  0.28757835     0.06900
C767        C  0.10411538  0.63813783  0.27668613    -0.06200
H768        H  0.05994469  0.69453676  0.26635937     0.07500
H769        H  0.12248212  0.62345294  0.29429709     0.08700
Cu770      Cu  0.00168589  0.65398614  0.23260991     0.44200
Cu771      Cu  0.05432198  0.59313325  0.58257181     0.42000
Cu772      Cu  0.46046474  0.59203752  0.60027875     0.43900
N773        N  0.45617100  0.65215669  0.27926147    -0.34900
N774        N  0.44048389  0.62955402  0.29040577    -0.29100
C775        C  0.41756451  0.63400630  0.33318304    -0.05200
C776        C  0.41954839  0.66054448  0.35087063     0.07000
C777        C  0.44416872  0.67145022  0.31549204     0.00800
H778        H  0.40359398  0.61825585  0.35382364     0.08400
H779        H  0.45525828  0.69109977  0.31935910     0.07500
N780        N  0.99299656  0.55822854  0.60716616    -0.36300
N781        N  0.02755598  0.55859353  0.60189455    -0.28500
C782        C  0.04147775  0.53483599  0.61904584    -0.03700
C783        C  0.01434686  0.51891496  0.63622730     0.04900
C784        C  0.48400453  0.53433270  0.62774921     0.03000
H785        H  0.06935529  0.53016859  0.62216077     0.08100
H786        H  0.45754623  0.52931834  0.63945771     0.06900
N787        N  0.34018060  0.86809567  0.45995420    -0.27500
N788        N  0.32473131  0.84511153  0.45025614    -0.35300
C789        C  0.33995220  0.82591310  0.48280320     0.00800
C790        C  0.36600654  0.83742946  0.51496088     0.06900
C791        C  0.36591618  0.86402053  0.49814772    -0.06200
H792        H  0.32963027  0.80612662  0.48822161     0.07500
H793        H  0.38034972  0.88012474  0.51730088     0.08700
Cu794      Cu  0.27556011  0.84282362  0.41491875     0.44200
Cu795      Cu  0.31789845  0.90582083  0.44385072     0.42000
Cu796      Cu  0.22500035  0.90594650  0.43028116     0.43900
N797        N  0.22259343  0.84511295  0.43125269    -0.34900
N798        N  0.20423925  0.86796972  0.43701583    -0.29100
C799        C  0.17503891  0.86335544  0.46685604    -0.05200
C800        C  0.17565673  0.83658318  0.48269647     0.07000
C801        C  0.20579933  0.82555693  0.45803919     0.00800
H802        H  0.15770953  0.87924801  0.48321618     0.08400
H803        H  0.21778687  0.80610512  0.46728018     0.07500
N804        N  0.25219355  0.94068251  0.44784631    -0.36300
N805        N  0.28675635  0.94060718  0.45301799    -0.28500
C806        C  0.29643207  0.96503437  0.47115940    -0.03700
C807        C  0.26647276  0.98129988  0.47772839     0.04900
C808        C  0.23892247  0.96520045  0.46237647     0.03000
H809        H  0.32314897  0.97021447  0.48101005     0.08100
H810        H  0.21116861  0.97053750  0.46405046     0.06900
N811        N  0.32475143  0.62213849  0.56531511    -0.27500
N812        N  0.30575208  0.64375804  0.58008417    -0.35300
C813        C  0.32294068  0.66573393  0.56534914     0.00800
C814        C  0.35383873  0.65791770  0.53765602     0.06900
C815        C  0.35451709  0.62998974  0.54063887    -0.06200
H816        H  0.31093161  0.68570676  0.56614038     0.07500
H817        H  0.37281415  0.61618135  0.51939684     0.08700
Cu818      Cu  0.25195999  0.64423326  0.58719621     0.44200
Cu819      Cu  0.30449407  0.58386356  0.55634560     0.42000
Cu820      Cu  0.21200128  0.58452286  0.53076074     0.43900
N821        N  0.20599394  0.64508095  0.54096155    -0.34900
N822        N  0.19152486  0.62322216  0.52058888    -0.29100
C823        C  0.16806627  0.63032756  0.48044826    -0.05200
C824        C  0.16824864  0.65797086  0.47406499     0.07000
C825        C  0.19240847  0.66665777  0.51364427     0.00800
H826        H  0.15491474  0.61596792  0.45374086     0.08400
H827        H  0.20242654  0.68665190  0.51776896     0.07500
N828        N  0.24344282  0.54989844  0.52350107    -0.36300
N829        N  0.27778079  0.54961516  0.53196270    -0.28500
C830        C  0.29127941  0.52507827  0.51791132    -0.03700
C831        C  0.26407894  0.50921547  0.49974957     0.04900
C832        C  0.23413740  0.52561901  0.50408593     0.03000
H833        H  0.31895331  0.51946878  0.51921643     0.08100
H834        H  0.20770425  0.52062752  0.49194322     0.06900
C835        C  0.12177244  0.67982571  0.33612788     0.86300
C836        C  0.15409570  0.69432305  0.31631475    -0.54000
C837        C  0.17184070  0.70715594  0.35871400     0.09200
C838        C  0.15489382  0.70406629  0.41854732     0.20200
C839        C  0.13501803  0.66103829  0.38319470    -0.54700
C840        C  0.15255614  0.67341412  0.42625846     0.09300
C841        C  0.09914525  0.70132790  0.36843614    -0.54200
C842        C  0.11574761  0.71393173  0.41267863     0.09900
H843        H  0.16049796  0.69648640  0.27149152     0.14400
H844        H  0.16963866  0.71398807  0.45312969     0.00100
H845        H  0.13060739  0.63970724  0.38279117     0.14700
H846        H  0.07187459  0.70557108  0.35799994     0.14500
C847        C  0.41775325  0.82707424  0.65386036     0.86300
C848        C  0.39947596  0.84218196  0.60509971    -0.54000
C849        C  0.38348334  0.82617666  0.56624474     0.09200
C850        C  0.38660289  0.79609001  0.58045495     0.20200
C851        C  0.38950361  0.80997563  0.68022939    -0.54700
C852        C  0.37285794  0.79369153  0.64230516     0.09300
C853        C  0.44296621  0.80676637  0.62328712    -0.54200
C854        C  0.42695817  0.79033973  0.58450835     0.09900
H855        H  0.39979357  0.86372387  0.60063554     0.14400
H856        H  0.37251513  0.78347703  0.54938987     0.00100
H857        H  0.38456490  0.80957486  0.72581282     0.14700
H858        H  0.47089847  0.80539218  0.63237180     0.14500
C859        C  0.12962106  0.82769736  0.62591588     0.86300
C860        C  0.16160848  0.81191805  0.64785304    -0.54000
C861        C  0.17721937  0.79518500  0.60855713     0.09200
C862        C  0.15873128  0.79576523  0.54963046     0.20200
C863        C  0.14229356  0.84216622  0.57302635    -0.54700
C864        C  0.15773494  0.82567344  0.53295803     0.09300
C865        C  0.10485583  0.80639949  0.60194819    -0.54200
C866        C  0.11945580  0.78935243  0.56091143     0.09900
H867        H  0.16903989  0.81183432  0.69256948     0.14400
H868        H  0.17278114  0.78286029  0.51792245     0.00100
H869        H  0.14021307  0.86370565  0.56820162     0.14700
H870        H  0.07791263  0.80587527  0.61632379     0.14500
C871        C  0.37252343  0.67450779  0.49344572     0.86300
C872        C  0.38748526  0.65806684  0.44286936    -0.54000
C873        C  0.40436158  0.67279879  0.40337665     0.09200
C874        C  0.40507153  0.70295237  0.41828230     0.20200
C875        C  0.40354720  0.68963808  0.51770700    -0.54700
C876        C  0.42116348  0.70442564  0.47881725     0.09300
C877        C  0.34898613  0.69637709  0.46511591    -0.54200
C878        C  0.36559184  0.71134483  0.42527481     0.09900
H879        H  0.38432759  0.63667686  0.43779593     0.14000
H880        H  0.41947013  0.71463890  0.38649781     0.00100
H881        H  0.40865635  0.69095698  0.56299728     0.14700
H882        H  0.32139275  0.69943606  0.47521618     0.14500
C883        C  0.50125652  0.74815685  0.50985252     0.02900
C884        C  0.48076481  0.72661428  0.48887755    -0.13200
C885        C  0.44405034  0.72640397  0.49841238     0.00400
C886        C  0.42778523  0.74695109  0.53049815    -0.11700
C887        C  0.44629822  0.76879121  0.55060352     0.02900
C888        C  0.48269320  0.76960907  0.53871773    -0.11200
H889        H  0.49284697  0.70959491  0.46670379     0.08500
H890        H  0.40021109  0.74532325  0.54041314     0.06000
H891        H  0.49610230  0.78745945  0.55120186     0.05900
C892        C  0.04137390  0.74869424  0.50227794     0.02900
C893        C  0.05952574  0.73207767  0.46179567    -0.13200
C894        C  0.09652533  0.73287742  0.45409821     0.00400
C895        C  0.11533159  0.75149309  0.48668934    -0.11700
C896        C  0.09873807  0.76848898  0.52791531     0.02900
C897        C  0.06202285  0.76598077  0.53615602    -0.11200
H898        H  0.04489479  0.71820227  0.43646951     0.08500
H899        H  0.14304980  0.75267396  0.47904789     0.06000
H900        H  0.04934982  0.77741208  0.56971061     0.05900
C901        C  0.29292727  0.75086941  0.00928052     0.02900
C902        C  0.31436771  0.77044097  0.98363697    -0.13200
C903        C  0.35054488  0.77172828  0.99628379     0.00400
C904        C  0.36614882  0.75281728  0.69938046    -0.11700
C905        C  0.34689344  0.73229423  0.72298457     0.02900
C906        C  0.31031059  0.73177469  0.71182546    -0.11200
H907        H  0.30350602  0.78515702  0.95460008     0.08500
H908        H  0.39368293  0.75455010  0.70978068     0.06000
H909        H  0.29571560  0.71619828  0.73119903     0.05900
C910        C  0.25297383  0.75050721  0.66622686     0.02900
C911        C  0.23206725  0.72872542  0.68457766    -0.13200
C912        C  0.19523576  0.72920063  0.67633574     0.00400
C913        C  0.17917333  0.75050588  0.64789977    -0.11700
C914        C  0.19819080  0.77192543  0.96271918     0.02900
C915        C  0.23465413  0.77243993  0.97288997    -0.11200
H916        H  0.24361595  0.71108387  0.70419660     0.08500
H917        H  0.15089839  0.75079990  0.64156718     0.06000
H918        H  0.24787108  0.79036663  0.96102425     0.05900
N919        N  0.09068215  0.88216786  0.71481701    -0.27500
N920        N  0.07705998  0.86102240  0.07227530    -0.35300
C921        C  0.09114595  0.83858680  0.04796428     0.00800
C922        C  0.11371918  0.84591835  0.00503711     0.06900
C923        C  0.11349270  0.87372325  0.67438840    -0.06200
H924        H  0.08194436  0.81860566  0.05543985     0.07500
H925        H  0.12615299  0.88716715  0.64564393     0.08700
Cu926      Cu  0.02899276  0.86211519  0.11241982     0.44200
Cu927      Cu  0.06961415  0.92096755  0.71838858     0.42000
Cu928      Cu  0.47767384  0.92038362  0.72964018     0.43900
N929        N  0.47759802  0.86051163  0.08574782    -0.34900
N930        N  0.45956656  0.88158096  0.73289968    -0.29100
C931        C  0.43326926  0.87298481  0.70011443    -0.05200
C932        C  0.43527877  0.84511996  0.03045524     0.07000
C933        C  0.46316703  0.83798561  0.06567461     0.00800
H934        H  0.41653083  0.88639565  0.67553112     0.08400
H935        H  0.47519704  0.81811386  0.06959799     0.07500
N936        N  0.00364674  0.95415295  0.70378994    -0.36300
N937        N  0.03822290  0.95439503  0.69967804    -0.28500
C938        C  0.04749584  0.97755943  0.67577145    -0.03700
C939        C  0.01717945  0.99258908  0.66416031     0.04900
C940        C  0.48987048  0.97717123  0.68264230     0.03000
H941        H  0.07419396  0.98259117  0.66563839     0.08100
H942        H  0.46202037  0.98184874  0.67900630     0.06900
N943        N  0.07450923  0.63146999  0.58296287    -0.27500
N944        N  0.05533115  0.65357799  0.57403799    -0.35300
C945        C  0.07216249  0.67472723  0.59524119     0.00800
C946        C  0.10306128  0.66567371  0.62091319     0.06900
C947        C  0.10411661  0.63813848  0.61002104    -0.06200
H948        H  0.05994637  0.69453749  0.59969359     0.07500
H949        H  0.12248308  0.62345357  0.62763237     0.08700
Cu950      Cu  0.00168738  0.65398698  0.56594448     0.44200
Cu951      Cu  0.05431995  0.59313433  0.91589908     0.42000
Cu952      Cu  0.46046179  0.59203861  0.93360168     0.43900
N953        N  0.45617236  0.65215742  0.61259594    -0.34900
N954        N  0.44048529  0.62955473  0.62374035    -0.29100
C955        C  0.41756551  0.63400713  0.66651702    -0.05200
C956        C  0.41954905  0.66054541  0.68420412     0.07000
C957        C  0.44416969  0.67145108  0.64882594     0.00800
H958        H  0.40359491  0.61825671  0.68715761     0.08400
H959        H  0.45525908  0.69110072  0.65269282     0.07500
N960        N  0.99299339  0.55822937  0.94048685    -0.36300
N961        N  0.02755288  0.55859446  0.93521652    -0.28500
C962        C  0.04147436  0.53483672  0.95236671    -0.03700
C963        C  0.01434339  0.51891544  0.96954640     0.04900
C964        C  0.48400110  0.53433323  0.96106820     0.03000
H965        H  0.06935181  0.53016946  0.95548296     0.08100
H966        H  0.45754269  0.52931876  0.97277612     0.06900
N967        N  0.34018261  0.86809673  0.79328786    -0.27500
N968        N  0.32473284  0.84511280  0.78358971    -0.35300
C969        C  0.33995327  0.82591420  0.81613675     0.00800
C970        C  0.36600783  0.83743011  0.84829448     0.06900
C971        C  0.36591818  0.86402117  0.83148126    -0.06200
H972        H  0.32963081  0.80612794  0.82155524     0.07500
H973        H  0.38035210  0.88012517  0.85063447     0.08700
Cu974      Cu  0.27556178  0.84282511  0.74825214     0.44200
Cu975      Cu  0.31790087  0.90582228  0.77718561     0.42000
Cu976      Cu  0.22500251  0.90594759  0.76361541     0.43900
N977        N  0.22259513  0.84511413  0.76458541    -0.34900
N978        N  0.20424100  0.86797090  0.77034853    -0.29100
C979        C  0.17504054  0.86335652  0.80018821    -0.05200
C980        C  0.17565826  0.83658427  0.81602863     0.07000
C981        C  0.20580090  0.82555807  0.79137159     0.00800
H982        H  0.15771117  0.87924906  0.81654820     0.08400
H983        H  0.21778842  0.80610627  0.80061276     0.07500
N984        N  0.25219549  0.94068362  0.78118131    -0.36300
N985        N  0.28675827  0.94060850  0.78635337    -0.28500
C986        C  0.29643363  0.96503574  0.80449517    -0.03700
C987        C  0.26647408  0.98130105  0.81106403     0.04900
C988        C  0.23892410  0.96520144  0.79571158     0.03000
H989        H  0.32315045  0.97021603  0.81434618     0.08100
H990        H  0.21117022  0.97053829  0.79738529     0.06900
N991        N  0.32475172  0.62213992  0.89864919    -0.27500
N992        N  0.30575256  0.64375953  0.91341850    -0.35300
C993        C  0.32294108  0.66573536  0.89868280     0.00800
C994        C  0.35383894  0.65791898  0.87098921     0.06900
C995        C  0.35451722  0.62999102  0.87397217    -0.06200
H996        H  0.31093211  0.68570822  0.89947415     0.07500
H997        H  0.37281412  0.61618251  0.85272992     0.08700
Cu998      Cu  0.25196060  0.64423467  0.92053238     0.44200
Cu999      Cu  0.30449421  0.58386503  0.88968066     0.42000
Cu1000     Cu  0.21200139  0.58452376  0.86409837     0.43900
N1001       N  0.20599469  0.64508207  0.87429758    -0.34900
N1002       N  0.19152542  0.62322325  0.85392551    -0.29100
C1003       C  0.16806708  0.63032860  0.81378442    -0.05200
C1004       C  0.16824985  0.65797183  0.80740016     0.07000
C1005       C  0.19240961  0.66665873  0.84697936     0.00800
H1006       H  0.15491537  0.61596892  0.78707743     0.08400
H1007       H  0.20242791  0.68665273  0.85110346     0.07500
N1008       N  0.24344318  0.54989936  0.85683794    -0.36300
N1009       N  0.27778120  0.54961636  0.86529889    -0.28500
C1010       C  0.29128013  0.52507962  0.85124712    -0.03700
C1011       C  0.26407986  0.50921657  0.83308567     0.04900
C1012       C  0.23413808  0.52561984  0.83742273     0.03000
H1013       H  0.31895411  0.51947043  0.85255154     0.08100
H1014       H  0.20770497  0.52062812  0.82528035     0.06900
C1015       C  0.12177363  0.67982631  0.66946284     0.86300
C1016       C  0.15409656  0.69432394  0.64964963    -0.54000
C1017       C  0.17184144  0.70715703  0.69204863     0.09200
C1018       C  0.15489479  0.70406720  0.75188205     0.20200
C1019       C  0.13501960  0.66103898  0.71652952    -0.54700
C1020       C  0.15255752  0.67341497  0.75959328     0.09300
C1021       C  0.09914620  0.70132829  0.70177118    -0.54200
C1022       C  0.11574846  0.71393233  0.74601346     0.09900
H1023       H  0.16049871  0.69648728  0.60482644     0.14400
H1024       H  0.16963950  0.71398912  0.78646435     0.00100
H1025       H  0.13060928  0.63970788  0.71612599     0.14700
H1026       H  0.07187549  0.70557129  0.69133500     0.14500
C1027       C  0.41775336  0.82707456  0.98719484     0.86300
C1028       C  0.39947633  0.84218234  0.93843401    -0.54000
C1029       C  0.38348393  0.82617711  0.89957873     0.09200
C1030       C  0.38660333  0.79609042  0.91378878     0.20200
C1031       C  0.38950362  0.80997585  0.01356344    -0.54700
C1032       C  0.37285812  0.79369177  0.97563886     0.09300
C1033       C  0.44296648  0.80676674  0.95662174    -0.54200
C1034       C  0.42695860  0.79034017  0.91784263     0.09900
H1035       H  0.39979408  0.86372426  0.93396968     0.14400
H1036       H  0.37251571  0.78347750  0.88272334     0.00100
H1037       H  0.38456476  0.80957497  0.05914681     0.14700
H1038       H  0.47089872  0.80539259  0.96570653     0.14500
C1039       C  0.12962201  0.82769912  0.95924765     0.86300
C1040       C  0.16160890  0.81191935  0.98118545    -0.54000
C1041       C  0.17721968  0.79518602  0.94189002     0.09200
C1042       C  0.15873205  0.79576650  0.88296307     0.20200
C1043       C  0.14229525  0.84216765  0.90635831    -0.54700
C1044       C  0.15773643  0.82567467  0.86629033     0.09300
C1045       C  0.10485642  0.80640153  0.93527971    -0.54200
C1046       C  0.11945637  0.78935416  0.89424345     0.09900
H1047       H  0.16903996  0.81183560  0.02590191     0.14400
H1048       H  0.17278187  0.78286140  0.85125542     0.00100
H1049       H  0.14021526  0.86370705  0.90153326     0.14700
H1050       H  0.07791310  0.80587766  0.94965491     0.14500
C1051       C  0.37252369  0.67450896  0.82677885     0.86300
C1052       C  0.38748529  0.65806790  0.77620235    -0.54000
C1053       C  0.40436183  0.67279981  0.73670974     0.09200
C1054       C  0.40507206  0.70295340  0.75161546     0.20200
C1055       C  0.40354767  0.68963905  0.85104005    -0.54700
C1056       C  0.42116412  0.70442652  0.81215036     0.09300
C1057       C  0.34898653  0.69637842  0.79844932    -0.54200
C1058       C  0.36559240  0.71134603  0.75860816     0.09900
H1059       H  0.38432743  0.63667790  0.77112888     0.14000
H1060       H  0.41947069  0.71463992  0.71983096     0.00100
H1061       H  0.40865663  0.69095810  0.89633034     0.14700
H1062       H  0.32139313  0.69943759  0.80854976     0.14500
C1063       C  0.50125712  0.74815781  0.84318605     0.02900
C1064       C  0.48076541  0.72661529  0.82221078    -0.13200
C1065       C  0.44405098  0.72640481  0.83174574     0.00400
C1066       C  0.42778590  0.74695172  0.86383204    -0.11700
C1067       C  0.44629878  0.76879182  0.88393757     0.02900
C1068       C  0.48269368  0.76960986  0.87205156    -0.11200
H1069       H  0.49284751  0.70959607  0.80003663     0.08500
H1070       H  0.40021183  0.74532374  0.87374727     0.06000
H1071       H  0.49610259  0.78746027  0.88453586     0.05900
C1072       C  0.04137456  0.74869533  0.83561146     0.02900
C1073       C  0.05952656  0.73207836  0.79513008    -0.13200
C1074       C  0.09652606  0.73287823  0.78743243     0.00400
C1075       C  0.11533208  0.75149433  0.82002257    -0.11700
C1076       C  0.09873860  0.76849054  0.86124786     0.02900
C1077       C  0.06202342  0.76598233  0.86948869    -0.11200
H1078       H  0.04489582  0.71820254  0.76980472     0.08500
H1079       H  0.14305015  0.75267526  0.81238087     0.06000
H1080       H  0.04935040  0.77741397  0.90304279     0.05900
C1081       C  0.79292681  0.25086815  0.34261481     0.02900
C1082       C  0.81436712  0.27043947  0.31697027    -0.13200
C1083       C  0.85054429  0.27172688  0.32961674     0.00400
C1084       C  0.86614876  0.25281707  0.03271309    -0.11700
C1085       C  0.84689323  0.23229395  0.05631680     0.02900
C1086       C  0.81031033  0.23177470  0.04515780    -0.11200
H1087       H  0.80350528  0.28515525  0.28793291     0.08500
H1088       H  0.89368291  0.25454968  0.04311316     0.06000
H1089       H  0.79571518  0.21619831  0.06453105     0.05900
C1090       C  0.75297365  0.25050759  0.99955945     0.02900
C1091       C  0.73206693  0.22872569  0.01790938    -0.13200
C1092       C  0.69523541  0.22920103  0.00966741     0.00400
C1093       C  0.67917310  0.25050659  0.98123213    -0.11700
C1094       C  0.69819019  0.27192413  0.29605488     0.02900
C1095       C  0.73465347  0.27243875  0.30622563    -0.11200
H1096       H  0.74361558  0.21108397  0.03752772     0.08500
H1097       H  0.65089817  0.25080074  0.97489941     0.06000
H1098       H  0.74787025  0.29036557  0.29436061     0.05900
N1099       N  0.59068214  0.38217044  0.04814542    -0.27500
N1100       N  0.57705804  0.36101956  0.40561256    -0.35300
C1101       C  0.59114375  0.33858408  0.38130075     0.00800
C1102       C  0.61371733  0.34591571  0.33837423     0.06900
C1103       C  0.61349286  0.37372555  0.00771732    -0.06200
H1104       H  0.58194182  0.31860304  0.38877540     0.07500
H1105       H  0.62615255  0.38716928  0.97897169     0.08700
Cu1106     Cu  0.52899056  0.36211255  0.44575639     0.44200
Cu1107     Cu  0.56961275  0.42096980  0.05171314     0.42000
Cu1108     Cu  0.97767274  0.42038500  0.06296764     0.43900
N1109       N  0.97759610  0.36050952  0.41908283    -0.34900
N1110       N  0.95956619  0.38158219  0.06623166    -0.29100
C1111       C  0.93326838  0.37298538  0.03344847    -0.05200
C1112       C  0.93527791  0.34511835  0.36378759     0.07000
C1113       C  0.96316526  0.33798364  0.39900857     0.00800
H1114       H  0.91652913  0.38639583  0.00886578     0.08400
H1115       H  0.97519490  0.31811173  0.40293245     0.07500
N1116       N  0.50364446  0.45415409  0.03711260    -0.36300
N1117       N  0.53822056  0.45439642  0.03299986    -0.28500
C1118       C  0.54749291  0.47756050  0.00909136    -0.03700
C1119       C  0.51717622  0.49258969  0.99747979     0.04900
C1120       C  0.98986773  0.47717189  0.01596350     0.03000
H1121       H  0.57419087  0.48259241  0.99895779     0.08100
H1122       H  0.96201757  0.48184922  0.01232829     0.06900
N1123       N  0.57450813  0.13147078  0.91629277    -0.27500
N1124       N  0.55533047  0.15357901  0.90736819    -0.35300
C1125       C  0.57216210  0.17472797  0.92857200     0.00800
C1126       C  0.60306071  0.16567402  0.95424403     0.06900
C1127       C  0.60411556  0.13813879  0.94335147    -0.06200
H1128       H  0.55994631  0.19453833  0.93302475     0.07500
H1129       H  0.62248180  0.12345357  0.96096250     0.08700
Cu1130     Cu  0.50168679  0.15398822  0.89927405     0.44200
Cu1131     Cu  0.55432060  0.09313245  0.24923654     0.42000
Cu1132     Cu  0.96046292  0.09203685  0.26694294     0.43900
N1133       N  0.95617172  0.15215827  0.94592504    -0.34900
N1134       N  0.94048374  0.12955569  0.95706701    -0.29100
C1135       C  0.91756394  0.13400764  0.99984388    -0.05200
C1136       C  0.91954846  0.16054547  0.01753355     0.07000
C1137       C  0.94416966  0.17145134  0.98215683     0.00800
H1138       H  0.90359252  0.11825710  0.02048271     0.08400
H1139       H  0.95525972  0.19110063  0.98602570     0.07500
N1140       N  0.49299458  0.05822768  0.27382831    -0.36300
N1141       N  0.52755404  0.05859262  0.26855697    -0.28500
C1142       C  0.54147559  0.03483482  0.28570708    -0.03700
C1143       C  0.51434453  0.01891370  0.30288752     0.04900
C1144       C  0.98400232  0.03433162  0.29441003     0.03000
H1145       H  0.56935309  0.03016733  0.28882220     0.08100
H1146       H  0.95754396  0.02931726  0.30611834     0.06900
N1147       N  0.84018030  0.36809460  0.12662109    -0.27500
N1148       N  0.82473086  0.34511051  0.11692311    -0.35300
C1149       C  0.83995198  0.32591202  0.14946966     0.00800
C1150       C  0.86600656  0.33742822  0.18162698     0.06900
C1151       C  0.86591619  0.36401931  0.16481401    -0.06200
H1152       H  0.82962996  0.30612562  0.15488824     0.07500
H1153       H  0.88034985  0.38012349  0.18396715     0.08700
Cu1154     Cu  0.77555931  0.34282259  0.08158716     0.44200
Cu1155     Cu  0.81789797  0.40581991  0.11051932     0.42000
Cu1156     Cu  0.72499977  0.40594547  0.09695141     0.43900
N1157       N  0.72259266  0.34511194  0.09792118    -0.34900
N1158       N  0.70423856  0.36796872  0.10368444    -0.29100
C1159       C  0.67503819  0.36335442  0.13352442    -0.05200
C1160       C  0.67565595  0.33658222  0.14936489     0.07000
C1161       C  0.70579847  0.32555594  0.12470756     0.00800
H1162       H  0.65770892  0.37924699  0.14988464     0.08400
H1163       H  0.71778598  0.30610414  0.13394858     0.07500
N1164       N  0.75219294  0.44068143  0.11451660    -0.36300
N1165       N  0.78675575  0.44060615  0.11968799    -0.28500
C1166       C  0.79643144  0.46503338  0.13782918    -0.03700
C1167       C  0.76647213  0.48129889  0.14439821     0.04900
C1168       C  0.73892189  0.46519938  0.12904659     0.03000
H1169       H  0.82314837  0.47021357  0.14767937     0.08100
H1170       H  0.71116808  0.47053644  0.13072044     0.06900
N1171       N  0.82475125  0.12213815  0.23197830    -0.27500
N1172       N  0.80575231  0.14375776  0.24674849    -0.35300
C1173       C  0.82294078  0.16573361  0.23201283     0.00800
C1174       C  0.85383836  0.15791721  0.20431841     0.06900
C1175       C  0.85451657  0.12998923  0.20730065    -0.06200
H1176       H  0.81093192  0.18570653  0.23280484     0.07500
H1177       H  0.87281324  0.11618077  0.18605764     0.08700
Cu1178     Cu  0.75196039  0.14423323  0.25386303     0.44200
Cu1179     Cu  0.80449366  0.08386332  0.22300976     0.42000
Cu1180     Cu  0.71200125  0.08452269  0.19742747     0.43900
N1181       N  0.70599477  0.14508103  0.20762747    -0.34900
N1182       N  0.69152564  0.12322230  0.18725461    -0.29100
C1183       C  0.66806749  0.13032785  0.14711341    -0.05200
C1184       C  0.66825024  0.15797114  0.14072995     0.07000
C1185       C  0.69240980  0.16665789  0.18030973     0.00800
H1186       H  0.65491586  0.11596830  0.12040599     0.08400
H1187       H  0.70242798  0.18665196  0.18443467     0.07500
N1188       N  0.74344231  0.04989786  0.19016875    -0.36300
N1189       N  0.77778032  0.04961464  0.19862948    -0.28500
C1190       C  0.79127880  0.02507763  0.18457895    -0.03700
C1191       C  0.76407828  0.00921461  0.16641865     0.04900
C1192       C  0.73413681  0.02561819  0.17075506     0.03000
H1193       H  0.81895267  0.01946821  0.18588345     0.08100
H1194       H  0.70770364  0.02062657  0.15861314     0.06900
C1195       C  0.62177331  0.17982641  0.00279374     0.86300
C1196       C  0.65409594  0.19432449  0.98298041    -0.54000
C1197       C  0.67184094  0.20715735  0.02537970     0.09200
C1198       C  0.65489471  0.20406688  0.08521339     0.20200
C1199       C  0.63501983  0.16103878  0.04985955    -0.54700
C1200       C  0.65255784  0.17341455  0.09292351     0.09300
C1201       C  0.59914576  0.20132797  0.03510322    -0.54200
C1202       C  0.61574815  0.21393174  0.07934580     0.09900
H1203       H  0.66049780  0.19648825  0.93815713     0.14400
H1204       H  0.66963956  0.21398860  0.11979585     0.00100
H1205       H  0.63060966  0.13970767  0.04945544     0.14700
H1206       H  0.57187489  0.20557081  0.02466756     0.14500
C1207       C  0.91775262  0.32707305  0.32052704     0.86300
C1208       C  0.89947567  0.34218069  0.27176598    -0.54000
C1209       C  0.88348323  0.32617536  0.23291089     0.09200
C1210       C  0.88660269  0.29608873  0.24712131     0.20200
C1211       C  0.88950282  0.30997448  0.34689573    -0.54700
C1212       C  0.87285739  0.29369031  0.30897136     0.09300
C1213       C  0.94296578  0.30676516  0.28995434    -0.54200
C1214       C  0.92695797  0.29033848  0.25117538     0.09900
H1215       H  0.89979334  0.36372258  0.26730161     0.14400
H1216       H  0.87251507  0.28347573  0.21605608     0.00100
H1217       H  0.88456386  0.30957376  0.39247910     0.14700
H1218       H  0.97089799  0.30539102  0.29903942     0.14500
C1219       C  0.62962029  0.32769679  0.29258443     0.86300
C1220       C  0.66160771  0.31191754  0.31452196    -0.54000
C1221       C  0.67721875  0.29518452  0.27522616     0.09200
C1222       C  0.65873080  0.29576457  0.21629950     0.20200
C1223       C  0.64229286  0.34216556  0.23969476    -0.54700
C1224       C  0.65773432  0.32567268  0.19962672     0.09300
C1225       C  0.60485516  0.30639879  0.26861680    -0.54200
C1226       C  0.61945537  0.28935168  0.22758030     0.09900
H1227       H  0.66903893  0.31183381  0.35923847     0.14400
H1228       H  0.67278086  0.28285960  0.18459179     0.00100
H1229       H  0.64021227  0.36370499  0.23486964     0.14700
H1230       H  0.57791189  0.30587457  0.28299209     0.14500
C1231       C  0.87252314  0.17450753  0.16010877     0.86300
C1232       C  0.88748478  0.15806699  0.10953163    -0.54000
C1233       C  0.90436137  0.17279928  0.07003979     0.09200
C1234       C  0.90507169  0.20295268  0.08494694     0.20200
C1235       C  0.90354717  0.18963721  0.18437091    -0.54700
C1236       C  0.92116364  0.20442509  0.14548201     0.09300
C1237       C  0.84898602  0.19637731  0.13178009    -0.54200
C1238       C  0.86559203  0.21134534  0.09193973     0.09900
H1239       H  0.88432694  0.13667708  0.10445720     0.14000
H1240       H  0.91947046  0.21463949  0.05316310     0.00100
H1241       H  0.90865635  0.19095552  0.22966129     0.14700
H1242       H  0.82139257  0.19943638  0.14188049     0.14500
C1243       C  0.00125670  0.24815575  0.17652019     0.02900
C1244       C  0.98076506  0.22661335  0.15554427    -0.13200
C1245       C  0.94405053  0.22640309  0.16507849     0.00400
C1246       C  0.92778531  0.24694999  0.19716478    -0.11700
C1247       C  0.94629823  0.26879001  0.21727078     0.02900
C1248       C  0.98269327  0.26960788  0.20538554    -0.11200
H1249       H  0.99284726  0.20959410  0.13337011     0.08500
H1250       H  0.90021111  0.24532210  0.20707940     0.06000
H1251       H  0.99610234  0.28745821  0.21787014     0.05900
C1252       C  0.54137409  0.24869318  0.16894616     0.02900
C1253       C  0.55952612  0.23207683  0.12846369    -0.13200
C1254       C  0.59652568  0.23287692  0.12076616     0.00400
C1255       C  0.61533166  0.25149259  0.15335762    -0.11700
C1256       C  0.59873795  0.26848815  0.19458401     0.02900
C1257       C  0.56202282  0.26597962  0.20282477    -0.11200
H1258       H  0.54489533  0.21820142  0.10313730     0.08500
H1259       H  0.64304979  0.25267377  0.14571596     0.06000
H1260       H  0.54934970  0.27741064  0.23637974     0.05900
C1261       C  0.79292740  0.25086916  0.67594775     0.02900
C1262       C  0.81436768  0.27044066  0.65030352    -0.13200
C1263       C  0.85054480  0.27172818  0.66295057     0.00400
C1264       C  0.86614829  0.25281598  0.36604655    -0.11700
C1265       C  0.84689284  0.23229306  0.38965123     0.02900
C1266       C  0.81030989  0.23177371  0.37849270    -0.11200
H1267       H  0.80350590  0.28515650  0.62126604     0.08500
H1268       H  0.89368244  0.25454875  0.37644640     0.06000
H1269       H  0.79571469  0.21619757  0.39786692     0.05900
C1270       C  0.75297323  0.25050629  0.33289411     0.02900
C1271       C  0.73206677  0.22872413  0.35124345    -0.13200
C1272       C  0.69523525  0.22919949  0.34300166     0.00400
C1273       C  0.67917280  0.25050514  0.31456714    -0.11700
C1274       C  0.69819081  0.27192465  0.62938612     0.02900
C1275       C  0.73465414  0.27243936  0.63955680    -0.11200
H1276       H  0.74361564  0.21108226  0.37086111     0.08500
H1277       H  0.65089790  0.25079921  0.30823457     0.06000
H1278       H  0.74787096  0.29036604  0.62769062     0.05900
N1279       N  0.59068078  0.38216768  0.38148373    -0.27500
N1280       N  0.57705920  0.36101967  0.73894516    -0.35300
C1281       C  0.59114461  0.33858432  0.71463245     0.00800
C1282       C  0.61371816  0.34591614  0.67170604     0.06900
C1283       C  0.61349151  0.37372285  0.34105563    -0.06200
H1284       H  0.58194257  0.31860327  0.72210659     0.07500
H1285       H  0.62615160  0.38716661  0.31231072     0.08700
Cu1286     Cu  0.52899191  0.36211256  0.77908963     0.44200
Cu1287     Cu  0.56961202  0.42096716  0.38505266     0.42000
Cu1288     Cu  0.97767178  0.42038291  0.39630383     0.43900
N1289       N  0.97759738  0.36051002  0.75241621    -0.34900
N1290       N  0.95956490  0.38158022  0.39956601    -0.29100
C1291       C  0.93326770  0.37298376  0.36678101    -0.05200
C1292       C  0.93527892  0.34511941  0.69712071     0.07000
C1293       C  0.96316612  0.33798438  0.73234164     0.00800
H1294       H  0.91652909  0.38639441  0.34219748     0.08400
H1295       H  0.97519539  0.31811237  0.73626530     0.07500
N1296       N  0.50364435  0.45415194  0.37045106    -0.36300
N1297       N  0.53822050  0.45439411  0.36633957    -0.28500
C1298       C  0.54749336  0.47755832  0.34243222    -0.03700
C1299       C  0.51717699  0.49258777  0.33082015     0.04900
C1300       C  0.98986802  0.47716998  0.34930230     0.03000
H1301       H  0.57419148  0.48259018  0.33229977     0.08100
H1302       H  0.96201790  0.48184746  0.34566620     0.06900
N1303       N  0.57450782  0.13146928  0.24962842    -0.27500
N1304       N  0.55532964  0.15357725  0.24070381    -0.35300
C1305       C  0.57216099  0.17472652  0.26190685     0.00800
C1306       C  0.60305999  0.16567310  0.28757834     0.06900
C1307       C  0.60411535  0.13813785  0.27668613    -0.06200
H1308       H  0.55994481  0.19453674  0.26635934     0.07500
H1309       H  0.62248204  0.12345299  0.29429709     0.08700
Cu1310     Cu  0.50168594  0.15398620  0.23260989     0.44200
Cu1311     Cu  0.55432194  0.09313325  0.58257181     0.42000
Cu1312     Cu  0.96046477  0.09203750  0.60027872     0.43900
N1313       N  0.95617102  0.15215670  0.27926149    -0.34900
N1314       N  0.94048389  0.12955402  0.29040580    -0.29100
C1315       C  0.91756446  0.13400627  0.33318306    -0.05200
C1316       C  0.91954833  0.16054448  0.35087057     0.07000
C1317       C  0.94416870  0.17145024  0.31549202     0.00800
H1318       H  0.90359388  0.11825577  0.35382366     0.08400
H1319       H  0.95525824  0.19109980  0.31935905     0.07500
N1320       N  0.49299651  0.05822850  0.60716614    -0.36300
N1321       N  0.52755594  0.05859351  0.60189454    -0.28500
C1322       C  0.54147772  0.03483598  0.61904586    -0.03700
C1323       C  0.51434682  0.01891495  0.63622732     0.04900
C1324       C  0.98400447  0.03433268  0.62774924     0.03000
H1325       H  0.56935526  0.03016861  0.62216082     0.08100
H1326       H  0.95754612  0.02931831  0.63945776     0.06900
N1327       N  0.84018061  0.36809570  0.45995418    -0.27500
N1328       N  0.82473131  0.34511156  0.45025613    -0.35300
C1329       C  0.83995222  0.32591316  0.48280319     0.00800
C1330       C  0.86600656  0.33742950  0.51496085     0.06900
C1331       C  0.86591622  0.36402057  0.49814768    -0.06200
H1332       H  0.82963027  0.30612669  0.48822163     0.07500
H1333       H  0.88034978  0.38012480  0.51730082     0.08700
Cu1334     Cu  0.77556013  0.34282358  0.41491874     0.44200
Cu1335     Cu  0.81789842  0.40582085  0.44385072     0.42000
Cu1336     Cu  0.72500033  0.40594650  0.43028117     0.43900
N1337       N  0.72259347  0.34511293  0.43125273    -0.34900
N1338       N  0.70423929  0.36796970  0.43701579    -0.29100
C1339       C  0.67503895  0.36335539  0.46685594    -0.05200
C1340       C  0.67565675  0.33658316  0.48269646     0.07000
C1341       C  0.70579936  0.32555691  0.45803926     0.00800
H1342       H  0.65770957  0.37924794  0.48321601     0.08400
H1343       H  0.71778690  0.30610510  0.46728031     0.07500
N1344       N  0.75219352  0.44068250  0.44784628    -0.36300
N1345       N  0.78675631  0.44060718  0.45301795    -0.28500
C1346       C  0.79643203  0.46503437  0.47115937    -0.03700
C1347       C  0.76647277  0.48129989  0.47772840     0.04900
C1348       C  0.73892253  0.46520044  0.46237646     0.03000
H1349       H  0.82314892  0.47021446  0.48101003     0.08100
H1350       H  0.71116874  0.47053750  0.46405047     0.06900
N1351       N  0.82475146  0.12213848  0.56531517    -0.27500
N1352       N  0.80575208  0.14375802  0.58008419    -0.35300
C1353       C  0.82294065  0.16573391  0.56534912     0.00800
C1354       C  0.85383875  0.15791767  0.53765605     0.06900
C1355       C  0.85451716  0.12998969  0.54063890    -0.06200
H1356       H  0.81093156  0.18570672  0.56614031     0.07500
H1357       H  0.87281426  0.11618127  0.51939683     0.08700
Cu1358     Cu  0.75195999  0.14423319  0.58719623     0.44200
Cu1359     Cu  0.80449405  0.08386357  0.55634560     0.42000
Cu1360     Cu  0.71200134  0.08452288  0.53076073     0.43900
N1361       N  0.70599395  0.14508095  0.54096161    -0.34900
N1362       N  0.69152490  0.12322217  0.52058886    -0.29100
C1363       C  0.66806633  0.13032758  0.48044820    -0.05200
C1364       C  0.66824865  0.15797087  0.47406499     0.07000
C1365       C  0.69240842  0.16665772  0.51364434     0.00800
H1366       H  0.65491483  0.11596795  0.45374073     0.08400
H1367       H  0.70242643  0.18665180  0.51776908     0.07500
N1368       N  0.74344287  0.04989846  0.52350103    -0.36300
N1369       N  0.77778081  0.04961517  0.53196266    -0.28500
C1370       C  0.79127936  0.02507828  0.51791126    -0.03700
C1371       C  0.76407896  0.00921546  0.49974952     0.04900
C1372       C  0.73413752  0.02561902  0.50408591     0.03000
H1373       H  0.81895319  0.01946878  0.51921637     0.08100
H1374       H  0.70770443  0.02062754  0.49194323     0.06900
C1375       C  0.62177249  0.17982571  0.33612788     0.86300
C1376       C  0.65409576  0.19432303  0.31631474    -0.54000
C1377       C  0.67184074  0.20715594  0.35871398     0.09200
C1378       C  0.65489388  0.20406630  0.41854732     0.20200
C1379       C  0.63501807  0.16103831  0.38319471    -0.54700
C1380       C  0.65255618  0.17341415  0.42625847     0.09300
C1381       C  0.59914532  0.20132792  0.36843612    -0.54200
C1382       C  0.61574767  0.21393176  0.41267863     0.09900
H1383       H  0.66049801  0.19648638  0.27149152     0.14400
H1384       H  0.66963873  0.21398808  0.45312969     0.00100
H1385       H  0.63060742  0.13970727  0.38279118     0.14700
H1386       H  0.57187466  0.20557112  0.35799991     0.14500
C1387       C  0.91775321  0.32707425  0.65386034     0.86300
C1388       C  0.89947594  0.34218199  0.60509969    -0.54000
C1389       C  0.88348332  0.32617668  0.56624472     0.09200
C1390       C  0.88660285  0.29609003  0.58045495     0.20200
C1391       C  0.88950355  0.30997568  0.68022939    -0.54700
C1392       C  0.87285791  0.29369156  0.64230517     0.09300
C1393       C  0.94296617  0.30676637  0.62328711    -0.54200
C1394       C  0.92695813  0.29033973  0.58450834     0.09900
H1395       H  0.89979357  0.36372390  0.60063550     0.14400
H1396       H  0.87251509  0.28347704  0.54938989     0.00100
H1397       H  0.88456483  0.30957491  0.72581282     0.14700
H1398       H  0.97089842  0.30539219  0.63237178     0.14500
C1399       C  0.62962102  0.32769739  0.62591585     0.86300
C1400       C  0.66160845  0.31191810  0.64785303    -0.54000
C1401       C  0.67721934  0.29518505  0.60855716     0.09200
C1402       C  0.65873125  0.29576527  0.54963054     0.20200
C1403       C  0.64229351  0.34216624  0.57302629    -0.54700
C1404       C  0.65773491  0.32567345  0.53295802     0.09300
C1405       C  0.60485583  0.30639951  0.60194818    -0.54200
C1406       C  0.61945581  0.28935244  0.56091148     0.09900
H1407       H  0.66903985  0.31183439  0.69256947     0.14400
H1408       H  0.67278110  0.28286033  0.51792259     0.00100
H1409       H  0.64021302  0.36370567  0.56820153     0.14700
H1410       H  0.57791265  0.30587528  0.61632374     0.14500
C1411       C  0.87252342  0.17450778  0.49344574     0.86300
C1412       C  0.88748523  0.15806683  0.44286933    -0.54000
C1413       C  0.90436155  0.17279878  0.40337661     0.09200
C1414       C  0.90507155  0.20295234  0.41828228     0.20200
C1415       C  0.90354726  0.18963803  0.51770697    -0.54700
C1416       C  0.92116353  0.20442560  0.47881722     0.09300
C1417       C  0.84898608  0.19637710  0.46511598    -0.54200
C1418       C  0.86559185  0.21134483  0.42527485     0.09900
H1419       H  0.88432752  0.13667686  0.43779587     0.14000
H1420       H  0.91947015  0.21463888  0.38649779     0.00100
H1421       H  0.90865643  0.19095694  0.56299725     0.14700
H1422       H  0.82139265  0.19943611  0.47521628     0.14500
C1423       C  0.00125654  0.24815686  0.50985255     0.02900
C1424       C  0.98076480  0.22661432  0.48887758    -0.13200
C1425       C  0.94405035  0.22640396  0.49841235     0.00400
C1426       C  0.92778521  0.24695108  0.53049808    -0.11700
C1427       C  0.94629820  0.26879120  0.55060349     0.02900
C1428       C  0.98269320  0.26960906  0.53871774    -0.11200
H1429       H  0.99284695  0.20959499  0.46670385     0.08500
H1430       H  0.90021105  0.24532324  0.54041303     0.06000
H1431       H  0.99610231  0.28745943  0.55120192     0.05900
C1432       C  0.54137395  0.24869420  0.50227797     0.02900
C1433       C  0.55952578  0.23207763  0.46179571    -0.13200
C1434       C  0.59652536  0.23287741  0.45409827     0.00400
C1435       C  0.61533155  0.25149308  0.48668947    -0.11700
C1436       C  0.59873810  0.26848896  0.52791538     0.02900
C1437       C  0.56202294  0.26598071  0.53615598    -0.11200
H1438       H  0.54489483  0.21820222  0.43646952     0.08500
H1439       H  0.64304969  0.25267397  0.47904804     0.06000
H1440       H  0.54934993  0.27741198  0.56971048     0.05900
C1441       C  0.79292727  0.25086943  0.00928055     0.02900
C1442       C  0.81436768  0.27044100  0.98363698    -0.13200
C1443       C  0.85054486  0.27172829  0.99628382     0.00400
C1444       C  0.86614880  0.25281731  0.69938052    -0.11700
C1445       C  0.84689342  0.23229421  0.72298458     0.02900
C1446       C  0.81031053  0.23177462  0.71182552    -0.11200
H1447       H  0.80350597  0.28515707  0.95460007     0.08500
H1448       H  0.89368291  0.25455014  0.70978077     0.06000
H1449       H  0.79571551  0.21619817  0.73119912     0.05900
C1450       C  0.75297382  0.25050722  0.66622683     0.02900
C1451       C  0.73206726  0.22872535  0.68457767    -0.13200
C1452       C  0.69523576  0.22920063  0.67633572     0.00400
C1453       C  0.67917336  0.25050591  0.64789978    -0.11700
C1454       C  0.69819076  0.27192539  0.96271917     0.02900
C1455       C  0.73465409  0.27243986  0.97288998    -0.11200
H1456       H  0.74361598  0.21108373  0.70419663     0.08500
H1457       H  0.65089846  0.25079993  0.64156720     0.06000
H1458       H  0.74787100  0.29036651  0.96102427     0.05900
N1459       N  0.59068213  0.38216790  0.71481701    -0.27500
N1460       N  0.57705991  0.36102236  0.07227530    -0.35300
C1461       C  0.59114590  0.33858680  0.04796423     0.00800
C1462       C  0.61371914  0.34591832  0.00503710     0.06900
C1463       C  0.61349263  0.37372327  0.67438833    -0.06200
H1464       H  0.58194431  0.31860571  0.05543973     0.07500
H1465       H  0.62615288  0.38716717  0.64564381     0.08700
Cu1466     Cu  0.52899273  0.36211513  0.11241988     0.44200
Cu1467     Cu  0.56961421  0.42096761  0.71838860     0.42000
Cu1468     Cu  0.97767392  0.42038358  0.72964017     0.43900
N1469       N  0.97759798  0.36051165  0.08574781    -0.34900
N1470       N  0.95956652  0.38158094  0.73289974    -0.29100
C1471       C  0.93326921  0.37298482  0.70011443    -0.05200
C1472       C  0.93527880  0.34511996  0.03045521     0.07000
C1473       C  0.96316704  0.33798559  0.06567461     0.00800
H1474       H  0.91653079  0.38639567  0.67553107     0.08400
H1475       H  0.97519707  0.31811377  0.06959805     0.07500
N1476       N  0.50364675  0.45415296  0.70378995    -0.36300
N1477       N  0.53822291  0.45439506  0.69967803    -0.28500
C1478       C  0.54749585  0.47755945  0.67577142    -0.03700
C1479       C  0.51717943  0.49258909  0.66416031     0.04900
C1480       C  0.98987043  0.47717124  0.68264232     0.03000
H1481       H  0.57419399  0.48259121  0.66563833     0.08100
H1482       H  0.96202027  0.48184876  0.67900633     0.06900
N1483       N  0.57450925  0.13146998  0.58296286    -0.27500
N1484       N  0.55533116  0.15357799  0.57403799    -0.35300
C1485       C  0.57216246  0.17472725  0.59524121     0.00800
C1486       C  0.60306128  0.16567370  0.62091319     0.06900
C1487       C  0.60411665  0.13813846  0.61002104    -0.06200
H1488       H  0.55994631  0.19453751  0.59969362     0.07500
H1489       H  0.62248316  0.12345353  0.62763235     0.08700
Cu1490     Cu  0.50168741  0.15398700  0.56594448     0.44200
Cu1491     Cu  0.55431989  0.09313435  0.91589907     0.42000
Cu1492     Cu  0.96046187  0.09203859  0.93360170     0.43900
N1493       N  0.95617245  0.15215741  0.61259596    -0.34900
N1494       N  0.94048541  0.12955471  0.62374041    -0.29100
C1495       C  0.91756562  0.13400708  0.66651709    -0.05200
C1496       C  0.91954912  0.16054536  0.68420415     0.07000
C1497       C  0.94416972  0.17145105  0.64882592     0.00800
H1498       H  0.90359504  0.11825663  0.68715770     0.08400
H1499       H  0.95525906  0.19110069  0.65269275     0.07500
N1500       N  0.49299340  0.05822934  0.94048686    -0.36300
N1501       N  0.52755290  0.05859442  0.93521652    -0.28500
C1502       C  0.54147446  0.03483667  0.95236669    -0.03700
C1503       C  0.51434344  0.01891541  0.96954639     0.04900
C1504       C  0.98400116  0.03433322  0.96106820     0.03000
H1505       H  0.56935198  0.03016940  0.95548291     0.08100
H1506       H  0.95754277  0.02931877  0.97277614     0.06900
N1507       N  0.84018262  0.36809672  0.79328788    -0.27500
N1508       N  0.82473286  0.34511278  0.78358970    -0.35300
C1509       C  0.83995324  0.32591415  0.81613676     0.00800
C1510       C  0.86600779  0.33743009  0.84829452     0.06900
C1511       C  0.86591815  0.36402115  0.83148133    -0.06200
H1512       H  0.82963076  0.30612786  0.82155522     0.07500
H1513       H  0.88035206  0.38012515  0.85063456     0.08700
Cu1514     Cu  0.77556179  0.34282514  0.74825212     0.44200
Cu1515     Cu  0.81790092  0.40582227  0.77718560     0.42000
Cu1516     Cu  0.72500248  0.40594764  0.76361542     0.43900
N1517       N  0.72259512  0.34511413  0.76458537    -0.34900
N1518       N  0.70424096  0.36797091  0.77034855    -0.29100
C1519       C  0.67504047  0.36335658  0.80018827    -0.05200
C1520       C  0.67565826  0.33658426  0.81602860     0.07000
C1521       C  0.70580095  0.32555801  0.79137151     0.00800
H1522       H  0.65771106  0.37924916  0.81654833     0.08400
H1523       H  0.71778851  0.30610617  0.80061262     0.07500
N1524       N  0.75219557  0.44068362  0.78118132    -0.36300
N1525       N  0.78675833  0.44060846  0.78635338    -0.28500
C1526       C  0.79643362  0.46503571  0.80449517    -0.03700
C1527       C  0.76647416  0.48130106  0.81106406     0.04900
C1528       C  0.73892421  0.46520146  0.79571159     0.03000
H1529       H  0.82315036  0.47021597  0.81434615     0.08100
H1530       H  0.71117034  0.47053833  0.79738528     0.06900
N1531       N  0.82475175  0.12213992  0.89864922    -0.27500
N1532       N  0.80575255  0.14375951  0.91341848    -0.35300
C1533       C  0.82294107  0.16573532  0.89868275     0.00800
C1534       C  0.85383895  0.15791898  0.87098921     0.06900
C1535       C  0.85451727  0.12999103  0.87397225    -0.06200
H1536       H  0.81093210  0.18570814  0.89947404     0.07500
H1537       H  0.87281421  0.11618253  0.85273006     0.08700
Cu1538     Cu  0.75196060  0.14423457  0.92053238     0.44200
Cu1539     Cu  0.80449427  0.08386500  0.88968062     0.42000
Cu1540     Cu  0.71200130  0.08452372  0.86409840     0.43900
N1541       N  0.70599470  0.14508203  0.87429751    -0.34900
N1542       N  0.69152536  0.12322321  0.85392548    -0.29100
C1543       C  0.66806702  0.13032857  0.81378440    -0.05200
C1544       C  0.66824987  0.15797182  0.80740015     0.07000
C1545       C  0.69240970  0.16665875  0.84697931     0.00800
H1546       H  0.65491527  0.11596889  0.78707744     0.08400
H1547       H  0.70242808  0.18665279  0.85110341     0.07500
N1548       N  0.74344317  0.04989937  0.85683797    -0.36300
N1549       N  0.77778116  0.04961636  0.86529889    -0.28500
C1550       C  0.79128003  0.02507961  0.85124709    -0.03700
C1551       C  0.76407983  0.00921656  0.83308565     0.04900
C1552       C  0.73413814  0.02561985  0.83742277     0.03000
H1553       H  0.81895397  0.01947041  0.85255149     0.08100
H1554       H  0.70770511  0.02062814  0.82528041     0.06900
C1555       C  0.62177359  0.17982632  0.66946283     0.86300
C1556       C  0.65409654  0.19432394  0.64964960    -0.54000
C1557       C  0.67184140  0.20715705  0.69204860     0.09200
C1558       C  0.65489479  0.20406721  0.75188206     0.20200
C1559       C  0.63501959  0.16103898  0.71652951    -0.54700
C1560       C  0.65255753  0.17341497  0.75959326     0.09300
C1561       C  0.59914610  0.20132832  0.70177115    -0.54200
C1562       C  0.61574842  0.21393233  0.74601347     0.09900
H1563       H  0.66049866  0.19648732  0.60482640     0.14400
H1564       H  0.66963954  0.21398913  0.78646436     0.00100
H1565       H  0.63060923  0.13970788  0.71612600     0.14700
H1566       H  0.57187533  0.20557132  0.69133496     0.14500
C1567       C  0.91775338  0.32707456  0.98719482     0.86300
C1568       C  0.89947632  0.34218228  0.93843402    -0.54000
C1569       C  0.88348392  0.32617707  0.89957874     0.09200
C1570       C  0.88660334  0.29609040  0.91378879     0.20200
C1571       C  0.88950366  0.30997584  0.01356342    -0.54700
C1572       C  0.87285814  0.29369176  0.97563888     0.09300
C1573       C  0.94296651  0.30676676  0.95662172    -0.54200
C1574       C  0.92695862  0.29034018  0.91784263     0.09900
H1575       H  0.89979405  0.36372415  0.93396973     0.14400
H1576       H  0.87251573  0.28347749  0.88272336     0.00100
H1577       H  0.88456484  0.30957496  0.05914678     0.14700
H1578       H  0.97089875  0.30539261  0.96570651     0.14500
C1579       C  0.62962200  0.32769910  0.95924766     0.86300
C1580       C  0.66160885  0.31191929  0.98118549    -0.54000
C1581       C  0.67721965  0.29518597  0.94189001     0.09200
C1582       C  0.65873204  0.29576646  0.88296302     0.20200
C1583       C  0.64229528  0.34216769  0.90635834    -0.54700
C1584       C  0.65773645  0.32567466  0.86629034     0.09300
C1585       C  0.60485640  0.30640153  0.93527968    -0.54200
C1586       C  0.61945634  0.28935415  0.89424343     0.09900
H1587       H  0.66903991  0.31183554  0.02590195     0.14400
H1588       H  0.67278189  0.28286134  0.85125534     0.00100
H1589       H  0.64021534  0.36370714  0.90153333     0.14700
H1590       H  0.57791308  0.30587769  0.94965484     0.14500
C1591       C  0.87252370  0.17450896  0.82677884     0.86300
C1592       C  0.88748534  0.15806790  0.77620238    -0.54000
C1593       C  0.90436187  0.17279979  0.73670975     0.09200
C1594       C  0.90507207  0.20295337  0.75161544     0.20200
C1595       C  0.90354766  0.18963905  0.85104006    -0.54700
C1596       C  0.92116411  0.20442652  0.81215036     0.09300
C1597       C  0.84898656  0.19637839  0.79844923    -0.54200
C1598       C  0.86559242  0.21134600  0.75860810     0.09900
H1599       H  0.88432751  0.13667790  0.77112895     0.14000
H1600       H  0.91947069  0.21463990  0.71983095     0.00100
H1601       H  0.90865663  0.19095809  0.89633035     0.14700
H1602       H  0.82139318  0.19943754  0.80854965     0.14500
C1603       C  0.00125711  0.24815780  0.84318604     0.02900
C1604       C  0.98076545  0.22661524  0.82221074    -0.13200
C1605       C  0.94405100  0.22640480  0.83174571     0.00400
C1606       C  0.92778589  0.24695171  0.86383207    -0.11700
C1607       C  0.94629878  0.26879182  0.88393757     0.02900
C1608       C  0.98269368  0.26960987  0.87205152    -0.11200
H1609       H  0.99284758  0.20959598  0.80003659     0.08500
H1610       H  0.90021180  0.24532373  0.87374734     0.06000
H1611       H  0.99610259  0.28746029  0.88453576     0.05900
C1612       C  0.54137452  0.24869531  0.83561147     0.02900
C1613       C  0.55952650  0.23207835  0.79513006    -0.13200
C1614       C  0.59652606  0.23287822  0.78743249     0.00400
C1615       C  0.61533218  0.25149430  0.82002266    -0.11700
C1616       C  0.59873859  0.26849052  0.86124790     0.02900
C1617       C  0.56202339  0.26598229  0.86948870    -0.11200
H1618       H  0.54489573  0.21820255  0.76980460     0.08500
H1619       H  0.64305033  0.25267522  0.81238098     0.06000
H1620       H  0.54935039  0.27741391  0.90304280     0.05900
C1621       C  0.79292679  0.75086818  0.34261482     0.02900
C1622       C  0.81436708  0.77043948  0.31697023    -0.13200
C1623       C  0.85054425  0.77172690  0.32961673     0.00400
C1624       C  0.86614878  0.75281705  0.03271304    -0.11700
C1625       C  0.84689321  0.73229393  0.05631675     0.02900
C1626       C  0.81031029  0.73177465  0.04515777    -0.11200
H1627       H  0.80350523  0.78515525  0.28793281     0.08500
H1628       H  0.89368293  0.75454967  0.04311313     0.06000
H1629       H  0.79571513  0.71619823  0.06453103     0.05900
C1630       C  0.75297364  0.75050759  0.99955944     0.02900
C1631       C  0.73206692  0.72872565  0.01790940    -0.13200
C1632       C  0.69523540  0.72920103  0.00966744     0.00400
C1633       C  0.67917315  0.75050660  0.98123216    -0.11700
C1634       C  0.69819018  0.77192411  0.29605489     0.02900
C1635       C  0.73465347  0.77243873  0.30622566    -0.11200
H1636       H  0.74361556  0.71108389  0.03752774     0.08500
H1637       H  0.65089827  0.75080076  0.97489944     0.06000
H1638       H  0.74787025  0.79036555  0.29436065     0.05900
N1639       N  0.59068217  0.88217048  0.04814542    -0.27500
N1640       N  0.57705799  0.86101951  0.40561252    -0.35300
C1641       C  0.59114367  0.83858400  0.38130074     0.00800
C1642       C  0.61371732  0.84591567  0.33837427     0.06900
C1643       C  0.61349290  0.87372558  0.00771737    -0.06200
H1644       H  0.58194169  0.81860292  0.38877538     0.07500
H1645       H  0.62615257  0.88716929  0.97897174     0.08700
Cu1646     Cu  0.52899056  0.86211260  0.44575646     0.44200
Cu1647     Cu  0.56961271  0.92096979  0.05171311     0.42000
Cu1648     Cu  0.97767268  0.92038498  0.06296766     0.43900
N1649       N  0.97759613  0.86050954  0.41908277    -0.34900
N1650       N  0.95956623  0.88158214  0.06623168    -0.29100
C1651       C  0.93326836  0.87298536  0.03344851    -0.05200
C1652       C  0.93527791  0.84511834  0.36378759     0.07000
C1653       C  0.96316529  0.83798367  0.39900847     0.00800
H1654       H  0.91652906  0.88639583  0.00886584     0.08400
H1655       H  0.97519495  0.81811179  0.40293229     0.07500
N1656       N  0.50364444  0.95415407  0.03711262    -0.36300
N1657       N  0.53822054  0.95439640  0.03299987    -0.28500
C1658       C  0.54749291  0.97756046  0.00909137    -0.03700
C1659       C  0.51717623  0.99258966  0.99747980     0.04900
C1660       C  0.98986761  0.97717188  0.01596351     0.03000
H1661       H  0.57419088  0.98259236  0.99895778     0.08100
H1662       H  0.96201741  0.98184923  0.01232830     0.06900
N1663       N  0.57450817  0.63147075  0.91629277    -0.27500
N1664       N  0.55533048  0.65357898  0.90736819    -0.35300
C1665       C  0.57216207  0.67472799  0.92857196     0.00800
C1666       C  0.60306071  0.66567402  0.95424399     0.06900
C1667       C  0.60411560  0.63813877  0.94335145    -0.06200
H1668       H  0.55994625  0.69453837  0.93302470     0.07500
H1669       H  0.62248185  0.62345355  0.96096250     0.08700
Cu1670     Cu  0.50168678  0.65398820  0.89927406     0.44200
Cu1671     Cu  0.55432063  0.59313244  0.24923651     0.42000
Cu1672     Cu  0.96046293  0.59203686  0.26694292     0.43900
N1673       N  0.95617172  0.65215831  0.94592504    -0.34900
N1674       N  0.94048372  0.62955572  0.95706698    -0.29100
C1675       C  0.91756393  0.63400766  0.99984386    -0.05200
C1676       C  0.91954846  0.66054551  0.01753354     0.07000
C1677       C  0.94416968  0.67145142  0.98215682     0.00800
H1678       H  0.90359253  0.61825712  0.02048270     0.08400
H1679       H  0.95525977  0.69110075  0.98602570     0.07500
N1680       N  0.49299463  0.55822772  0.27382836    -0.36300
N1681       N  0.52755407  0.55859263  0.26855699    -0.28500
C1682       C  0.54147561  0.53483481  0.28570706    -0.03700
C1683       C  0.51434456  0.51891372  0.30288751     0.04900
C1684       C  0.98400238  0.53433168  0.29441005     0.03000
H1685       H  0.56935311  0.53016730  0.28882214     0.08100
H1686       H  0.95754404  0.52931733  0.30611835     0.06900
N1687       N  0.84018039  0.86809460  0.12662102    -0.27500
N1688       N  0.82473091  0.84511052  0.11692312    -0.35300
C1689       C  0.83995197  0.82591199  0.14946968     0.00800
C1690       C  0.86600662  0.83742819  0.18162690     0.06900
C1691       C  0.86591631  0.86401929  0.16481388    -0.06200
H1692       H  0.82962989  0.80612557  0.15488832     0.07500
H1693       H  0.88035002  0.88012346  0.18396697     0.08700
Cu1694     Cu  0.77555933  0.84282266  0.08158721     0.44200
Cu1695     Cu  0.81789808  0.90581994  0.11051935     0.42000
Cu1696     Cu  0.72499989  0.90594545  0.09695142     0.43900
N1697       N  0.72259267  0.84511194  0.09792113    -0.34900
N1698       N  0.70423856  0.86796874  0.10368445    -0.29100
C1699       C  0.67503817  0.86335448  0.13352448    -0.05200
C1700       C  0.67565596  0.83658224  0.14936488     0.07000
C1701       C  0.70579850  0.82555592  0.12470750     0.00800
H1702       H  0.65770890  0.87924710  0.14988479     0.08400
H1703       H  0.71778602  0.80610410  0.13394850     0.07500
N1704       N  0.75219303  0.94068142  0.11451656    -0.36300
N1705       N  0.78675581  0.94060617  0.11968799    -0.28500
C1706       C  0.79643144  0.96503341  0.13782922    -0.03700
C1707       C  0.76647213  0.98129890  0.14439824     0.04900
C1708       C  0.73892196  0.96519936  0.12904656     0.03000
H1709       H  0.82314834  0.97021362  0.14767944     0.08100
H1710       H  0.71116818  0.97053639  0.13072039     0.06900
N1711       N  0.82475127  0.62213813  0.23197830    -0.27500
N1712       N  0.80575231  0.64375772  0.24674848    -0.35300
C1713       C  0.82294079  0.66573356  0.23201286     0.00800
C1714       C  0.85383837  0.65791721  0.20431845     0.06900
C1715       C  0.85451660  0.62998924  0.20730072    -0.06200
H1716       H  0.81093193  0.68570645  0.23280485     0.07500
H1717       H  0.87281329  0.61618079  0.18605774     0.08700
Cu1718     Cu  0.75196041  0.64423318  0.25386303     0.44200
Cu1719     Cu  0.80449365  0.58386331  0.22300976     0.42000
Cu1720     Cu  0.71200129  0.58452268  0.19742746     0.43900
N1721       N  0.70599481  0.64508101  0.20762744    -0.34900
N1722       N  0.69152567  0.62322229  0.18725456    -0.29100
C1723       C  0.66806748  0.63032782  0.14711337    -0.05200
C1724       C  0.66825021  0.65797111  0.14072995     0.07000
C1725       C  0.69240977  0.66665783  0.18030974     0.00800
H1726       H  0.65491583  0.61596826  0.12040594     0.08400
H1727       H  0.70242790  0.68665186  0.18443468     0.07500
N1728       N  0.74344232  0.54989783  0.19016880    -0.36300
N1729       N  0.77778034  0.54961462  0.19862948    -0.28500
C1730       C  0.79127881  0.52507762  0.18457889    -0.03700
C1731       C  0.76407830  0.50921459  0.16641862     0.04900
C1732       C  0.73413682  0.52561816  0.17075509     0.03000
H1733       H  0.81895268  0.51946821  0.18588334     0.08100
H1734       H  0.70770364  0.52062654  0.15861318     0.06900
C1735       C  0.62177331  0.67982640  0.00279372     0.86300
C1736       C  0.65409590  0.69432450  0.98298043    -0.54000
C1737       C  0.67184089  0.70715736  0.02537971     0.09200
C1738       C  0.65489466  0.70406688  0.08521338     0.20200
C1739       C  0.63501979  0.66103877  0.04985956    -0.54700
C1740       C  0.65255781  0.67341455  0.09292351     0.09300
C1741       C  0.59914582  0.70132794  0.03510321    -0.54200
C1742       C  0.61574814  0.71393172  0.07934580     0.09900
H1743       H  0.66049776  0.69648826  0.93815717     0.14400
H1744       H  0.66963950  0.71398860  0.11979584     0.00100
H1745       H  0.63060962  0.63970765  0.04945545     0.14700
H1746       H  0.57187500  0.70557077  0.02466755     0.14500
C1747       C  0.91775261  0.82707305  0.32052705     0.86300
C1748       C  0.89947568  0.84218069  0.27176596    -0.54000
C1749       C  0.88348327  0.82617537  0.23291086     0.09200
C1750       C  0.88660270  0.79608875  0.24712135     0.20200
C1751       C  0.88950277  0.80997451  0.34689571    -0.54700
C1752       C  0.87285736  0.79369033  0.30897136     0.09300
C1753       C  0.94296577  0.80676515  0.28995439    -0.54200
C1754       C  0.92695797  0.79033847  0.25117544     0.09900
H1755       H  0.89979337  0.86372257  0.26730159     0.14400
H1756       H  0.87251512  0.78347576  0.21605613     0.00100
H1757       H  0.88456378  0.80957381  0.39247907     0.14700
H1758       H  0.97089797  0.80539099  0.29903947     0.14500
C1759       C  0.62962029  0.82769677  0.29258443     0.86300
C1760       C  0.66160768  0.81191750  0.31452198    -0.54000
C1761       C  0.67721875  0.79518450  0.27522617     0.09200
C1762       C  0.65873079  0.79576457  0.21629950     0.20200
C1763       C  0.64229291  0.84216556  0.23969480    -0.54700
C1764       C  0.65773435  0.82567268  0.19962673     0.09300
C1765       C  0.60485514  0.80639880  0.26861672    -0.54200
C1766       C  0.61945536  0.78935168  0.22758024     0.09900
H1767       H  0.66903889  0.81183376  0.35923849     0.14400
H1768       H  0.67278084  0.78285960  0.18459180     0.00100
H1769       H  0.64021235  0.86370500  0.23486972     0.14700
H1770       H  0.57791185  0.80587460  0.28299197     0.14500
C1771       C  0.87252313  0.67450751  0.16010879     0.86300
C1772       C  0.88748476  0.65806694  0.10953165    -0.54000
C1773       C  0.90436134  0.67279927  0.07003982     0.09200
C1774       C  0.90507164  0.70295268  0.08494697     0.20200
C1775       C  0.90354712  0.68963724  0.18437094    -0.54700
C1776       C  0.92116359  0.70442511  0.14548203     0.09300
C1777       C  0.84898607  0.69637730  0.13178006    -0.54200
C1778       C  0.86559202  0.71134533  0.09193971     0.09900
H1779       H  0.88432692  0.63667700  0.10445721     0.14000
H1780       H  0.91947040  0.71463949  0.05316315     0.00100
H1781       H  0.90865632  0.69095554  0.22966132     0.14700
H1782       H  0.82139267  0.69943634  0.14188043     0.14500
C1783       C  0.00125667  0.74815575  0.17652018     0.02900
C1784       C  0.98076499  0.72661340  0.15554428    -0.13200
C1785       C  0.94405051  0.72640312  0.16507849     0.00400
C1786       C  0.92778537  0.74694999  0.19716479    -0.11700
C1787       C  0.94629823  0.76878999  0.21727082     0.02900
C1788       C  0.98269324  0.76960784  0.20538554    -0.11200
H1789       H  0.99284716  0.70959419  0.13337013     0.08500
H1790       H  0.90021124  0.74532210  0.20707943     0.06000
H1791       H  0.99610229  0.78745814  0.21787014     0.05900
C1792       C  0.54137406  0.74869316  0.16894617     0.02900
C1793       C  0.55952610  0.73207683  0.12846367    -0.13200
C1794       C  0.59652564  0.73287690  0.12076613     0.00400
C1795       C  0.61533162  0.75149256  0.15335761    -0.11700
C1796       C  0.59873793  0.76848814  0.19458398     0.02900
C1797       C  0.56202279  0.76597961  0.20282482    -0.11200
H1798       H  0.54489531  0.71820144  0.10313726     0.08500
H1799       H  0.64304974  0.75267374  0.14571595     0.06000
H1800       H  0.54934966  0.77741062  0.23637984     0.05900
C1801       C  0.79292741  0.75086917  0.67594775     0.02900
C1802       C  0.81436767  0.77044063  0.65030357    -0.13200
C1803       C  0.85054482  0.77172814  0.66295056     0.00400
C1804       C  0.86614828  0.75281600  0.36604657    -0.11700
C1805       C  0.84689284  0.73229309  0.38965124     0.02900
C1806       C  0.81030991  0.73177380  0.37849271    -0.11200
H1807       H  0.80350589  0.78515647  0.62126616     0.08500
H1808       H  0.89368244  0.75454875  0.37644641     0.06000
H1809       H  0.79571472  0.71619771  0.39786694     0.05900
C1810       C  0.75297322  0.75050630  0.33289414     0.02900
C1811       C  0.73206673  0.72872418  0.35124342    -0.13200
C1812       C  0.69523520  0.72919950  0.34300168     0.00400
C1813       C  0.67917272  0.75050514  0.31456718    -0.11700
C1814       C  0.69819084  0.77192460  0.62938608     0.02900
C1815       C  0.73465416  0.77243928  0.63955680    -0.11200
H1816       H  0.74361559  0.71108233  0.37086103     0.08500
H1817       H  0.65089777  0.75079922  0.30823463     0.06000
H1818       H  0.74787096  0.79036592  0.62769061     0.05900
N1819       N  0.59068078  0.88216764  0.38148373    -0.27500
N1820       N  0.57705923  0.86101960  0.73894514    -0.35300
C1821       C  0.59114460  0.83858421  0.71463246     0.00800
C1822       C  0.61371820  0.84591609  0.67170609     0.06900
C1823       C  0.61349155  0.87372285  0.34105566    -0.06200
H1824       H  0.58194249  0.81860312  0.72210657     0.07500
H1825       H  0.62615170  0.88716663  0.31231078     0.08700
Cu1826     Cu  0.52899195  0.86211253  0.77908965     0.44200
Cu1827     Cu  0.56961199  0.92096711  0.38505264     0.42000
Cu1828     Cu  0.97767177  0.92038290  0.39630382     0.43900
N1829       N  0.97759737  0.86051003  0.75241621    -0.34900
N1830       N  0.95956490  0.88158023  0.39956600    -0.29100
C1831       C  0.93326769  0.87298373  0.36678108    -0.05200
C1832       C  0.93527895  0.84511939  0.69712073     0.07000
C1833       C  0.96316614  0.83798434  0.73234169     0.00800
H1834       H  0.91652906  0.88639436  0.34219761     0.08400
H1835       H  0.97519542  0.81811230  0.73626543     0.07500
N1836       N  0.50364436  0.95415191  0.37045104    -0.36300
N1837       N  0.53822053  0.95439410  0.36633955    -0.28500
C1838       C  0.54749346  0.97755832  0.34243224    -0.03700
C1839       C  0.51717703  0.99258775  0.33082017     0.04900
C1840       C  0.98986804  0.97716993  0.34930231     0.03000
H1841       H  0.57419164  0.98259018  0.33229980     0.08100
H1842       H  0.96201793  0.98184740  0.34566618     0.06900
N1843       N  0.57450783  0.63146927  0.24962838    -0.27500
N1844       N  0.55532961  0.65357724  0.24070378    -0.35300
C1845       C  0.57216091  0.67472653  0.26190685     0.00800
C1846       C  0.60305994  0.66567309  0.28757835     0.06900
C1847       C  0.60411537  0.63813781  0.27668615    -0.06200
H1848       H  0.55994470  0.69453676  0.26635936     0.07500
H1849       H  0.62248209  0.62345291  0.29429713     0.08700
Cu1850     Cu  0.50168590  0.65398614  0.23260990     0.44200
Cu1851     Cu  0.55432199  0.59313325  0.58257182     0.42000
Cu1852     Cu  0.96046477  0.59203752  0.60027875     0.43900
N1853       N  0.95617097  0.65215667  0.27926145    -0.34900
N1854       N  0.94048387  0.62955400  0.29040578    -0.29100
C1855       C  0.91756451  0.63400632  0.33318306    -0.05200
C1856       C  0.91954837  0.66054449  0.35087062     0.07000
C1857       C  0.94416867  0.67145021  0.31549200     0.00800
H1858       H  0.90359400  0.61825588  0.35382367     0.08400
H1859       H  0.95525821  0.69109976  0.31935902     0.07500
N1860       N  0.49299655  0.55822854  0.60716616    -0.36300
N1861       N  0.52755596  0.55859353  0.60189456    -0.28500
C1862       C  0.54147773  0.53483598  0.61904584    -0.03700
C1863       C  0.51434683  0.51891496  0.63622729     0.04900
C1864       C  0.98400455  0.53433270  0.62774921     0.03000
H1865       H  0.56935527  0.53016859  0.62216077     0.08100
H1866       H  0.95754624  0.52931833  0.63945773     0.06900
N1867       N  0.84018062  0.86809567  0.45995418    -0.27500
N1868       N  0.82473131  0.84511154  0.45025617    -0.35300
C1869       C  0.83995217  0.82591309  0.48280324     0.00800
C1870       C  0.86600653  0.83742946  0.51496088     0.06900
C1871       C  0.86591621  0.86402053  0.49814769    -0.06200
H1872       H  0.82963019  0.80612660  0.48822169     0.07500
H1873       H  0.88034977  0.88012474  0.51730081     0.08700
Cu1874     Cu  0.77556012  0.84282363  0.41491874     0.44200
Cu1875     Cu  0.81789845  0.90582084  0.44385072     0.42000
Cu1876     Cu  0.72500036  0.90594650  0.43028115     0.43900
N1877       N  0.72259345  0.84511295  0.43125271    -0.34900
N1878       N  0.70423927  0.86796972  0.43701585    -0.29100
C1879       C  0.67503893  0.86335544  0.46685604    -0.05200
C1880       C  0.67565674  0.83658318  0.48269647     0.07000
C1881       C  0.70579934  0.82555693  0.45803920     0.00800
H1882       H  0.65770955  0.87924801  0.48321617     0.08400
H1883       H  0.71778689  0.80610511  0.46728019     0.07500
N1884       N  0.75219354  0.94068250  0.44784632    -0.36300
N1885       N  0.78675632  0.94060717  0.45301799    -0.28500
C1886       C  0.79643203  0.96503437  0.47115939    -0.03700
C1887       C  0.76647277  0.98129989  0.47772840     0.04900
C1888       C  0.73892253  0.96520044  0.46237649     0.03000
H1889       H  0.82314893  0.97021447  0.48101002     0.08100
H1890       H  0.71116875  0.97053749  0.46405048     0.06900
N1891       N  0.82475145  0.62213849  0.56531513    -0.27500
N1892       N  0.80575210  0.64375804  0.58008419    -0.35300
C1893       C  0.82294070  0.66573392  0.56534914     0.00800
C1894       C  0.85383876  0.65791769  0.53765603     0.06900
C1895       C  0.85451713  0.62998973  0.54063886    -0.06200
H1896       H  0.81093164  0.68570674  0.56614037     0.07500
H1897       H  0.87281421  0.61618132  0.51939682     0.08700
Cu1898     Cu  0.75196000  0.64423326  0.58719620     0.44200
Cu1899     Cu  0.80449410  0.58386356  0.55634560     0.42000
Cu1900     Cu  0.71200131  0.58452285  0.53076074     0.43900
N1901       N  0.70599397  0.64508095  0.54096152    -0.34900
N1902       N  0.69152489  0.62322216  0.52058888    -0.29100
C1903       C  0.66806630  0.63032758  0.48044829    -0.05200
C1904       C  0.66824866  0.65797087  0.47406498     0.07000
C1905       C  0.69240849  0.66665777  0.51364424     0.00800
H1906       H  0.65491477  0.61596796  0.45374092     0.08400
H1907       H  0.70242656  0.68665190  0.51776892     0.07500
N1908       N  0.74344286  0.54989844  0.52350107    -0.36300
N1909       N  0.77778081  0.54961516  0.53196271    -0.28500
C1910       C  0.79127935  0.52507827  0.51791132    -0.03700
C1911       C  0.76407893  0.50921546  0.49974957     0.04900
C1912       C  0.73413744  0.52561900  0.50408593     0.03000
H1913       H  0.81895318  0.51946878  0.51921642     0.08100
H1914       H  0.70770430  0.52062752  0.49194321     0.06900
C1915       C  0.62177244  0.67982570  0.33612788     0.86300
C1916       C  0.65409569  0.69432306  0.31631475    -0.54000
C1917       C  0.67184069  0.70715594  0.35871400     0.09200
C1918       C  0.65489381  0.70406629  0.41854732     0.20200
C1919       C  0.63501804  0.66103829  0.38319470    -0.54700
C1920       C  0.65255614  0.67341412  0.42625846     0.09300
C1921       C  0.59914525  0.70132788  0.36843615    -0.54200
C1922       C  0.61574760  0.71393173  0.41267863     0.09900
H1923       H  0.66049795  0.69648641  0.27149153     0.14400
H1924       H  0.66963864  0.71398807  0.45312969     0.00100
H1925       H  0.63060742  0.63970724  0.38279115     0.14700
H1926       H  0.57187459  0.70557106  0.35799996     0.14500
C1927       C  0.91775325  0.82707423  0.65386034     0.86300
C1928       C  0.89947595  0.84218196  0.60509970    -0.54000
C1929       C  0.88348333  0.82617665  0.56624473     0.09200
C1930       C  0.88660287  0.79609001  0.58045494     0.20200
C1931       C  0.88950359  0.80997563  0.68022936    -0.54700
C1932       C  0.87285793  0.79369152  0.64230514     0.09300
C1933       C  0.94296627  0.80676636  0.62328713    -0.54200
C1934       C  0.92695819  0.79033973  0.58450836     0.09900
H1935       H  0.89979358  0.86372386  0.60063551     0.14400
H1936       H  0.87251511  0.78347702  0.54938987     0.00100
H1937       H  0.88456490  0.80957485  0.72581278     0.14700
H1938       H  0.97089857  0.80539217  0.63237182     0.14500
C1939       C  0.62962105  0.82769736  0.62591587     0.86300
C1940       C  0.66160849  0.81191806  0.64785301    -0.54000
C1941       C  0.67721939  0.79518501  0.60855711     0.09200
C1942       C  0.65873128  0.79576523  0.54963045     0.20200
C1943       C  0.64229353  0.84216621  0.57302632    -0.54700
C1944       C  0.65773492  0.82567344  0.53295801     0.09300
C1945       C  0.60485583  0.80639947  0.60194819    -0.54200
C1946       C  0.61945581  0.78935242  0.56091143     0.09900
H1947       H  0.66903990  0.81183435  0.69256944     0.14400
H1948       H  0.67278114  0.78286029  0.51792244     0.00100
H1949       H  0.64021304  0.86370564  0.56820158     0.14700
H1950       H  0.57791265  0.80587524  0.61632380     0.14500
C1951       C  0.87252343  0.67450780  0.49344573     0.86300
C1952       C  0.88748528  0.65806683  0.44286938    -0.54000
C1953       C  0.90436159  0.67279879  0.40337665     0.09200
C1954       C  0.90507155  0.70295236  0.41828229     0.20200
C1955       C  0.90354722  0.68963808  0.51770700    -0.54700
C1956       C  0.92116350  0.70442564  0.47881725     0.09300
C1957       C  0.84898607  0.69637709  0.46511592    -0.54200
C1958       C  0.86559183  0.71134482  0.42527482     0.09900
H1959       H  0.88432761  0.63667686  0.43779594     0.14000
H1960       H  0.91947015  0.71463890  0.38649780     0.00100
H1961       H  0.90865637  0.69095698  0.56299728     0.14700
H1962       H  0.82139263  0.69943607  0.47521621     0.14500
C1963       C  0.00125652  0.74815686  0.50985250     0.02900
C1964       C  0.98076482  0.72661428  0.48887754    -0.13200
C1965       C  0.94405036  0.72640397  0.49841237     0.00400
C1966       C  0.92778524  0.74695109  0.53049815    -0.11700
C1967       C  0.94629822  0.76879121  0.55060351     0.02900
C1968       C  0.98269319  0.76960907  0.53871770    -0.11200
H1969       H  0.99284698  0.70959491  0.46670379     0.08500
H1970       H  0.90021110  0.74532324  0.54041315     0.06000
H1971       H  0.99610229  0.78745945  0.55120182     0.05900
C1972       C  0.54137391  0.74869424  0.50227795     0.02900
C1973       C  0.55952575  0.73207767  0.46179567    -0.13200
C1974       C  0.59652531  0.73287742  0.45409819     0.00400
C1975       C  0.61533150  0.75149309  0.48668933    -0.11700
C1976       C  0.59873806  0.76848898  0.52791531     0.02900
C1977       C  0.56202287  0.76598076  0.53615603    -0.11200
H1978       H  0.54489480  0.71820228  0.43646951     0.08500
H1979       H  0.64304964  0.75267398  0.47904786     0.06000
H1980       H  0.54934984  0.77741206  0.56971062     0.05900
C1981       C  0.79292726  0.75086941  0.00928053     0.02900
C1982       C  0.81436768  0.77044098  0.98363696    -0.13200
C1983       C  0.85054487  0.77172828  0.99628380     0.00400
C1984       C  0.86614888  0.75281727  0.69938049    -0.11700
C1985       C  0.84689346  0.73229422  0.72298456     0.02900
C1986       C  0.81031061  0.73177470  0.71182542    -0.11200
H1987       H  0.80350599  0.78515705  0.95460006     0.08500
H1988       H  0.89368304  0.75455010  0.70978072     0.06000
H1989       H  0.79571562  0.71619831  0.73119897     0.05900
C1990       C  0.75297383  0.75050721  0.66622686     0.02900
C1991       C  0.73206724  0.72872543  0.68457766    -0.13200
C1992       C  0.69523576  0.72920064  0.67633573     0.00400
C1993       C  0.67917334  0.75050589  0.64789976    -0.11700
C1994       C  0.69819080  0.77192542  0.96271918     0.02900
C1995       C  0.73465412  0.77243993  0.97288998    -0.11200
H1996       H  0.74361593  0.71108388  0.70419660     0.08500
H1997       H  0.65089841  0.75079991  0.64156717     0.06000
H1998       H  0.74787107  0.79036663  0.96102427     0.05900
N1999       N  0.59068217  0.88216785  0.71481701    -0.27500
N2000       N  0.57705995  0.86102239  0.07227529    -0.35300
C2001       C  0.59114594  0.83858681  0.04796427     0.00800
C2002       C  0.61371919  0.84591835  0.00503713     0.06900
C2003       C  0.61349271  0.87372326  0.67438835    -0.06200
H2004       H  0.58194435  0.81860568  0.05543980     0.07500
H2005       H  0.62615299  0.88716718  0.64564384     0.08700
Cu2006     Cu  0.52899273  0.86211519  0.11241978     0.44200
Cu2007     Cu  0.56961415  0.92096755  0.71838858     0.42000
Cu2008     Cu  0.97767386  0.92038361  0.72964017     0.43900
N2009       N  0.97759807  0.86051163  0.08574779    -0.34900
N2010       N  0.95956653  0.88158096  0.73289970    -0.29100
C2011       C  0.93326925  0.87298481  0.70011442    -0.05200
C2012       C  0.93527880  0.84511995  0.03045524     0.07000
C2013       C  0.96316707  0.83798562  0.06567458     0.00800
H2014       H  0.91653084  0.88639564  0.67553109     0.08400
H2015       H  0.97519708  0.81811386  0.06959795     0.07500
N2016       N  0.50364672  0.95415295  0.70378993    -0.36300
N2017       N  0.53822289  0.95439503  0.69967804    -0.28500
C2018       C  0.54749585  0.97755942  0.67577145    -0.03700
C2019       C  0.51717944  0.99258907  0.66416032     0.04900
C2020       C  0.98987050  0.97717122  0.68264230     0.03000
H2021       H  0.57419398  0.98259116  0.66563839     0.08100
H2022       H  0.96202040  0.98184874  0.67900630     0.06900
N2023       N  0.57450925  0.63146999  0.58296286    -0.27500
N2024       N  0.55533116  0.65357800  0.57403798    -0.35300
C2025       C  0.57216249  0.67472724  0.59524117     0.00800
C2026       C  0.60306130  0.66567370  0.62091319     0.06900
C2027       C  0.60411665  0.63813846  0.61002106    -0.06200
H2028       H  0.55994638  0.69453750  0.59969358     0.07500
H2029       H  0.62248314  0.62345353  0.62763241     0.08700
Cu2030     Cu  0.50168739  0.65398698  0.56594452     0.44200
Cu2031     Cu  0.55431994  0.59313433  0.91589907     0.42000
Cu2032     Cu  0.96046182  0.59203861  0.93360167     0.43900
N2033       N  0.95617238  0.65215742  0.61259594    -0.34900
N2034       N  0.94048531  0.62955473  0.62374036    -0.29100
C2035       C  0.91756554  0.63400713  0.66651704    -0.05200
C2036       C  0.91954909  0.66054541  0.68420414     0.07000
C2037       C  0.94416971  0.67145108  0.64882594     0.00800
H2038       H  0.90359494  0.61825670  0.68715764     0.08400
H2039       H  0.95525910  0.69110072  0.65269282     0.07500
N2040       N  0.49299337  0.55822937  0.94048685    -0.36300
N2041       N  0.52755287  0.55859446  0.93521653    -0.28500
C2042       C  0.54147441  0.53483671  0.95236671    -0.03700
C2043       C  0.51434339  0.51891545  0.96954640     0.04900
C2044       C  0.98400113  0.53433322  0.96106820     0.03000
H2045       H  0.56935191  0.53016945  0.95548296     0.08100
H2046       H  0.95754273  0.52931875  0.97277612     0.06900
N2047       N  0.84018264  0.86809673  0.79328785    -0.27500
N2048       N  0.82473287  0.84511281  0.78358969    -0.35300
C2049       C  0.83995329  0.82591420  0.81613674     0.00800
C2050       C  0.86600784  0.83743011  0.84829448     0.06900
C2051       C  0.86591820  0.86402117  0.83148126    -0.06200
H2052       H  0.82963081  0.80612795  0.82155523     0.07500
H2053       H  0.88035212  0.88012516  0.85063449     0.08700
Cu2054     Cu  0.77556180  0.84282512  0.74825215     0.44200
Cu2055     Cu  0.81790089  0.90582228  0.77718561     0.42000
Cu2056     Cu  0.72500241  0.90594763  0.76361542     0.43900
N2057       N  0.72259514  0.84511413  0.76458543    -0.34900
N2058       N  0.70424096  0.86797089  0.77034851    -0.29100
C2059       C  0.67504048  0.86335652  0.80018816    -0.05200
C2060       C  0.67565826  0.83658426  0.81602861     0.07000
C2061       C  0.70580095  0.82555805  0.79137161     0.00800
H2062       H  0.65771104  0.87924908  0.81654813     0.08400
H2063       H  0.71778850  0.80610627  0.80061283     0.07500
N2064       N  0.75219549  0.94068362  0.78118132    -0.36300
N2065       N  0.78675826  0.94060847  0.78635337    -0.28500
C2066       C  0.79643356  0.96503572  0.80449516    -0.03700
C2067       C  0.76647408  0.98130105  0.81106404     0.04900
C2068       C  0.73892412  0.96520145  0.79571158     0.03000
H2069       H  0.82315032  0.97021599  0.81434614     0.08100
H2070       H  0.71117025  0.97053832  0.79738529     0.06900
N2071       N  0.82475175  0.62213992  0.89864920    -0.27500
N2072       N  0.80575259  0.64375953  0.91341852    -0.35300
C2073       C  0.82294110  0.66573536  0.89868280     0.00800
C2074       C  0.85383896  0.65791898  0.87098920     0.06900
C2075       C  0.85451725  0.62999102  0.87397216    -0.06200
H2076       H  0.81093213  0.68570821  0.89947415     0.07500
H2077       H  0.87281415  0.61618251  0.85272992     0.08700
Cu2078     Cu  0.75196063  0.64423466  0.92053238     0.44200
Cu2079     Cu  0.80449425  0.58386503  0.88968066     0.42000
Cu2080     Cu  0.71200143  0.58452376  0.86409837     0.43900
N2081       N  0.70599473  0.64508207  0.87429757    -0.34900
N2082       N  0.69152545  0.62322325  0.85392550    -0.29100
C2083       C  0.66806711  0.63032860  0.81378441    -0.05200
C2084       C  0.66824988  0.65797183  0.80740016     0.07000
C2085       C  0.69240965  0.66665873  0.84697936     0.00800
H2086       H  0.65491541  0.61596892  0.78707743     0.08400
H2087       H  0.70242794  0.68665273  0.85110345     0.07500
N2088       N  0.74344322  0.54989936  0.85683794    -0.36300
N2089       N  0.77778124  0.54961636  0.86529889    -0.28500
C2090       C  0.79128016  0.52507962  0.85124712    -0.03700
C2091       C  0.76407990  0.50921657  0.83308567     0.04900
C2092       C  0.73413811  0.52561984  0.83742273     0.03000
H2093       H  0.81895415  0.51947043  0.85255154     0.08100
H2094       H  0.70770501  0.52062812  0.82528035     0.06900
C2095       C  0.62177363  0.67982631  0.66946284     0.86300
C2096       C  0.65409656  0.69432394  0.64964963    -0.54000
C2097       C  0.67184143  0.70715704  0.69204863     0.09200
C2098       C  0.65489479  0.70406721  0.75188206     0.20200
C2099       C  0.63501962  0.66103899  0.71652953    -0.54700
C2100       C  0.65255754  0.67341498  0.75959328     0.09300
C2101       C  0.59914620  0.70132829  0.70177119    -0.54200
C2102       C  0.61574846  0.71393233  0.74601348     0.09900
H2103       H  0.66049871  0.69648729  0.60482645     0.14400
H2104       H  0.66963951  0.71398913  0.78646436     0.00100
H2105       H  0.63060931  0.63970789  0.71612599     0.14700
H2106       H  0.57187549  0.70557128  0.69133502     0.14500
C2107       C  0.91775337  0.82707456  0.98719485     0.86300
C2108       C  0.89947632  0.84218235  0.93843403    -0.54000
C2109       C  0.88348393  0.82617711  0.89957876     0.09200
C2110       C  0.88660333  0.79609043  0.91378881     0.20200
C2111       C  0.88950363  0.80997584  0.01356346    -0.54700
C2112       C  0.87285812  0.79369177  0.97563889     0.09300
C2113       C  0.94296648  0.80676675  0.95662173    -0.54200
C2114       C  0.92695860  0.79034018  0.91784263     0.09900
H2115       H  0.89979406  0.86372426  0.93396972     0.14400
H2116       H  0.87251573  0.78347751  0.88272338     0.00100
H2117       H  0.88456478  0.80957496  0.05914683     0.14700
H2118       H  0.97089872  0.80539259  0.96570650     0.14500
C2119       C  0.62962203  0.82769912  0.95924767     0.86300
C2120       C  0.66160892  0.81191935  0.98118548    -0.54000
C2121       C  0.67721968  0.79518601  0.94189003     0.09200
C2122       C  0.65873206  0.79576650  0.88296306     0.20200
C2123       C  0.64229528  0.84216765  0.90635831    -0.54700
C2124       C  0.65773645  0.82567466  0.86629033     0.09300
C2125       C  0.60485643  0.80640153  0.93527972    -0.54200
C2126       C  0.61945637  0.78935416  0.89424345     0.09900
H2127       H  0.66903999  0.81183559  0.02590196     0.14400
H2128       H  0.67278187  0.78286139  0.85125541     0.00100
H2129       H  0.64021530  0.86370705  0.90153327     0.14700
H2130       H  0.57791311  0.80587767  0.94965492     0.14500
C2131       C  0.87252371  0.67450896  0.82677885     0.86300
C2132       C  0.88748533  0.65806790  0.77620237    -0.54000
C2133       C  0.90436186  0.67279982  0.73670976     0.09200
C2134       C  0.90507207  0.70295340  0.75161547     0.20200
C2135       C  0.90354767  0.68963906  0.85104005    -0.54700
C2136       C  0.92116412  0.70442653  0.81215037     0.09300
C2137       C  0.84898654  0.69637841  0.79844932    -0.54200
C2138       C  0.86559240  0.71134602  0.75860815     0.09900
H2139       H  0.88432746  0.63667790  0.77112889     0.14000
H2140       H  0.91947071  0.71463993  0.71983098     0.00100
H2141       H  0.90865661  0.69095811  0.89633032     0.14700
H2142       H  0.82139313  0.69943756  0.80854974     0.14500
C2143       C  0.00125712  0.74815781  0.84318605     0.02900
C2144       C  0.98076542  0.72661529  0.82221079    -0.13200
C2145       C  0.94405099  0.72640481  0.83174576     0.00400
C2146       C  0.92778591  0.74695172  0.86383206    -0.11700
C2147       C  0.94629878  0.76879182  0.88393756     0.02900
C2148       C  0.98269369  0.76960986  0.87205156    -0.11200
H2149       H  0.99284752  0.70959607  0.80003665     0.08500
H2150       H  0.90021183  0.74532374  0.87374729     0.06000
H2151       H  0.99610260  0.78746027  0.88453585     0.05900
C2152       C  0.54137455  0.74869533  0.83561147     0.02900
C2153       C  0.55952656  0.73207836  0.79513010    -0.13200
C2154       C  0.59652606  0.73287823  0.78743244     0.00400
C2155       C  0.61533209  0.75149433  0.82002258    -0.11700
C2156       C  0.59873860  0.76849055  0.86124786     0.02900
C2157       C  0.56202341  0.76598234  0.86948868    -0.11200
H2158       H  0.54489582  0.71820254  0.76980474     0.08500
H2159       H  0.64305017  0.75267526  0.81238087     0.06000
H2160       H  0.54935040  0.77741398  0.90304277     0.05900
loop_ 
_geom_bond_atom_site_label_1 
_geom_bond_atom_site_label_2 
_geom_bond_distance 
_geom_bond_site_symmetry_2 
_ccdc_geom_bond_type 
C1            C2   1.429       .  A
C1          C186   1.424       .  A
C1          C190   1.539       .  S
C2            C3   1.412       .  A
C2            H7   1.078       .  S
C3          C184   1.397       .  A
C3          C132   1.492       .  S
C4            C5   1.397       .  A
C4          C363   1.397   1_554  A
C4            H8   1.082       .  S
C5            C6   1.418       .  A
C5          C158   1.505       .  S
C6          C361   1.424       .  A
C6            H9   1.074       .  S
C10          C11   1.436   1_556  A
C10         C375   1.427       .  A
C10         C361   1.539   1_556  S
C11          C12   1.415       .  A
C11          H16   1.078       .  S
C12          C13   1.385   1_554  A
C12         C117   1.486       .  S
C13         C374   1.383       .  A
C13          H17   1.086       .  S
C14          C15   1.410       .  A
C14         C193   1.383       .  A
C14         C141   1.474       .  S
C15         C190   1.427       .  A
C15          H18   1.078       .  S
N19          C23   1.340       .  A
N19         Cu27   2.069       .  S
N19         N380   1.322       .  A
N20          C21   1.345       .  A
N20         Cu26   2.057       .  S
N20         N199   1.322       .  A
C21          C22   1.383       .  A
C21          H24   1.082       .  S
C22         C203   1.386       .  A
C22         C139   1.511       .  S
C23         C382   1.386       .  A
C23          H25   1.080   1_554  S
Cu26       N1109   2.058   1_455  S
Cu27         N37   2.069       .  S
Cu28         N30   2.076       .  S
Cu28       N1116   2.075       .  S
N29          C33   1.346       .  A
N29       Cu1106   2.058       .  S
N29         N210   1.322       .  A
N30          C31   1.340       .  A
N30         N389   1.322       .  A
C31         C392   1.389       .  A
C31          H34   1.080       .  S
C32          C33   1.385       .  A
C32         C211   1.389       .  A
C32         C127   1.517       .  S
C33          H35   1.082       .  S
N36        C1120   1.345   1_455  A
N36       Cu1108   2.075   1_455  S
N36          N37   1.320       .  A
N37          C38   1.346       .  A
C38          C39   1.384   1_554  A
C38          H41   1.082   1_554  S
C39        C1120   1.385   1_456  A
C39         C963   1.473       .  S
C40        C1119   1.385   1_554  A
C40          H42   1.082       .  S
C40        N1116   1.345       .  A
N43          C47   1.343       .  A
N43        Cu411   2.082       .  S
N43          N44   1.320       .  A
N44          C45   1.342       .  A
N44         Cu50   2.051       .  S
C45          C46   1.386       .  A
C45          H48   1.081       .  S
C46          C47   1.392       .  A
C46         C115   1.521   1_556  S
C47          H49   1.081       .  S
Cu50       N1133   2.054   1_455  S
Cu51         N61   2.082       .  S
Cu51        N223   2.082       .  S
Cu52        N234   2.064       .  S
Cu52       N1140   2.066       .  S
N53          C57   1.344       .  A
N53       Cu1130   2.054       .  S
N53          N54   1.320       .  A
N54          C55   1.341       .  A
N54        Cu412   2.064       .  S
C55          C56   1.386   1_556  A
C55          H58   1.081   1_556  S
C56          C57   1.380   1_554  A
C56         C153   1.477       .  S
C57          H59   1.082       .  S
N60        C1144   1.344       .  A
N60       Cu1132   2.066       .  S
N60          N61   1.322   1_655  A
N61          C62   1.347       .  A
C62          C63   1.385       .  A
C62          H65   1.082       .  S
C63        C1144   1.382   1_455  A
C63         C759   1.473   1_545  S
C64        C1143   1.382       .  A
C64          H66   1.082       .  S
C64        N1140   1.344       .  A
N67          C71   1.339       .  A
N67         Cu75   2.075       .  S
N67          N68   1.322       .  A
N68          C69   1.346       .  A
N68         Cu74   2.053       .  S
C69          C70   1.381       .  A
C69          H72   1.082       .  S
C70          C71   1.386       .  A
C70         C129   1.481       .  S
C71          H73   1.081       .  S
Cu74         N77   2.052       .  S
Cu75         N85   2.077       .  S
Cu76         N78   2.082       .  S
Cu76         N84   2.082       .  S
N77          C81   1.344       .  A
N77          N78   1.322       .  A
N78          C79   1.341       .  A
C79          C80   1.388       .  A
C79          H82   1.081       .  S
C80          C81   1.380       .  A
C80         C144   1.479       .  S
C81          H83   1.082       .  S
N84          C88   1.347       .  A
N84          N85   1.321       .  A
N85          C86   1.347       .  A
C86          C87   1.385       .  A
C86          H89   1.082       .  S
C87          C88   1.386       .  A
C87         C651   1.478       .  S
C88          H90   1.082       .  S
N91          C95   1.344       .  A
N91         Cu99   2.088       .  S
N91          N92   1.321       .  A
N92          C93   1.342       .  A
N92         Cu98   2.054       .  S
C93          C94   1.386       .  A
C93          H96   1.081       .  S
C94          C95   1.393       .  A
C94         C151   1.523       .  S
C95          H97   1.080       .  S
Cu98        N101   2.058       .  S
Cu99        N109   2.089       .  S
Cu100       N102   2.072       .  S
Cu100       N108   2.073       .  S
N101        C105   1.346       .  A
N101        N102   1.321       .  A
N102        C103   1.340       .  A
C103        C104   1.387       .  A
C103        H106   1.081       .  S
C104        C105   1.382       .  A
C104        C120   1.481       .  S
C105        H107   1.081       .  S
N108        C112   1.346       .  A
N108        N109   1.322       .  A
N109        C110   1.348       .  A
C110        C111   1.387       .  A
C110        H113   1.082       .  S
C111        C112   1.384       .  A
C111        C627   1.478   1_545  S
C112        H114   1.082       .  S
C115        C116   1.522   1_554  S
C115        C121   1.544       .  S
C115        C119   1.530       .  S
C116        H123   1.086       .  S
C116        C117   1.366   1_556  D
C117        C118   1.555       .  S
C118        C122   1.561       .  S
C118        C120   1.545       .  S
C118        H124   1.107       .  S
C119        H125   1.081       .  S
C119        C120   1.363       .  D
C121        H126   1.081       .  S
C121        C122   1.371       .  D
C122        C174   1.518       .  S
C127        C128   1.530       .  S
C127        C133   1.542       .  S
C127        C131   1.528       .  S
C128        H135   1.080       .  S
C128        C129   1.361       .  D
C129        C130   1.540       .  S
C130        C134   1.557       .  S
C130        C132   1.548       .  S
C130        H136   1.106       .  S
C131        H137   1.085       .  S
C131        C132   1.366       .  D
C133        H138   1.085       .  S
C133        C134   1.372       .  D
C134        C167   1.502       .  S
C139        C140   1.521       .  S
C139        C145   1.543       .  S
C139        C143   1.527       .  S
C140        H147   1.086       .  S
C140        C141   1.359       .  D
C141        C142   1.550       .  S
C142        C146   1.562       .  S
C142        C144   1.544       .  S
C142        H148   1.104       .  S
C143        H149   1.081       .  S
C143        C144   1.362       .  D
C145        H150   1.081       .  S
C145        C146   1.381       .  D
C146        C176   1.528       .  S
C151        C152   1.532       .  S
C151        C157   1.544       .  S
C151        C155   1.528       .  S
C152        H159   1.082       .  S
C152        C153   1.362       .  D
C153        C154   1.540       .  S
C154        C158   1.555       .  S
C154        C156   1.547       .  S
C154        H160   1.107       .  S
C155        H161   1.081       .  S
C155        C156   1.368       .  D
C156        C165   1.490       .  S
C157        H162   1.082       .  S
C157        C158   1.369       .  D
C163        C164   1.430       .  A
C163        C168   1.426       .  A
C163       C1252   1.539       .  S
C164        C165   1.416       .  A
C164        H169   1.079       .  S
C165        C166   1.392       .  A
C166        C167   1.393       .  A
C166        H170   1.081       .  S
C167        C168   1.415       .  A
C168        H171   1.077       .  S
C172        C173   1.417       .  A
C172        C177   1.421       .  A
C172       C1243   1.539       .  S
C173        C174   1.422       .  A
C173        H178   1.075       .  S
C174        C175   1.408       .  A
C175        C176   1.413       .  A
C175        H179   1.074       .  S
C176        C177   1.421       .  A
C177        H180   1.071       .  S
C181        C182   1.429       .  A
C181        C366   1.424       .  A
C181        C370   1.539       .  S
C182        C183   1.412       .  A
C182        H187   1.078       .  S
C183        C364   1.397       .  A
C183        C312   1.492       .  S
C184        C185   1.397       .  A
C184        H188   1.082       .  S
C185        C186   1.418       .  A
C185        C338   1.505       .  S
C186        H189   1.074       .  S
C190        C191   1.436       .  A
C191        C192   1.415       .  A
C191        H196   1.078       .  S
C192        C193   1.385       .  A
C192        C297   1.486       .  S
C193        H197   1.086       .  S
C194        C373   1.383       .  A
C194        C195   1.410       .  A
C194        C321   1.474       .  S
C195        C370   1.427       .  A
C195        H198   1.078       .  S
N199        C203   1.340       .  A
N199       Cu207   2.069       .  S
N200        C201   1.345       .  A
N200       Cu206   2.057       .  S
N200        N379   1.322       .  A
C201        C202   1.383       .  A
C201        H204   1.082       .  S
C202        C383   1.386       .  A
C202        C319   1.511       .  S
C203        H205   1.080       .  S
Cu206      N1289   2.058   1_455  S
Cu207       N217   2.069       .  S
Cu208       N210   2.076       .  S
Cu208      N1296   2.075       .  S
N209        C213   1.346       .  A
N209      Cu1286   2.058       .  S
N209        N390   1.322       .  A
N210        C211   1.340       .  A
C211        H214   1.080       .  S
C212        C391   1.389       .  A
C212        C213   1.385       .  A
C212        C307   1.517       .  S
C213        H215   1.082       .  S
N216       C1300   1.345   1_455  A
N216      Cu1288   2.075   1_455  S
N216        N217   1.320       .  A
N217        C218   1.346       .  A
C218        C219   1.384       .  A
C218        H221   1.082       .  S
C219       C1300   1.385   1_455  A
C219        C603   1.473       .  S
C220       C1299   1.385       .  A
C220        H222   1.082       .  S
C220       N1296   1.345       .  A
N223        C227   1.343       .  A
N223        N224   1.320       .  A
N224        C225   1.342       .  A
N224       Cu230   2.051       .  S
C225        C226   1.386       .  A
C225        H228   1.081       .  S
C226        C227   1.392       .  A
C226        C295   1.521       .  S
C227        H229   1.081       .  S
Cu230      N1313   2.054   1_455  S
Cu231       N403   2.082       .  S
Cu231       N241   2.082       .  S
Cu232       N414   2.064       .  S
Cu232      N1320   2.066       .  S
N233        C237   1.344       .  A
N233      Cu1310   2.054       .  S
N233        N234   1.320       .  A
N234        C235   1.341       .  A
C235        C236   1.386       .  A
C235        H238   1.081       .  S
C236        C237   1.380       .  A
C236        C333   1.477       .  S
C237        H239   1.082       .  S
N240       C1324   1.344       .  A
N240      Cu1312   2.066       .  S
N240        N241   1.322   1_655  A
N241        C242   1.347       .  A
C242        C243   1.385       .  A
C242        H245   1.082       .  S
C243       C1324   1.382   1_455  A
C243        C939   1.473   1_545  S
C244       C1323   1.382       .  A
C244        H246   1.082       .  S
C244       N1320   1.344       .  A
N247        C251   1.339       .  A
N247       Cu255   2.075       .  S
N247        N248   1.322       .  A
N248        C249   1.346       .  A
N248       Cu254   2.053       .  S
C249        C250   1.381       .  A
C249        H252   1.082       .  S
C250        C251   1.386       .  A
C250        C309   1.481       .  S
C251        H253   1.081       .  S
Cu254       N257   2.052       .  S
Cu255       N265   2.077       .  S
Cu256       N258   2.082       .  S
Cu256       N264   2.082       .  S
N257        C261   1.344       .  A
N257        N258   1.322       .  A
N258        C259   1.341       .  A
C259        C260   1.388       .  A
C259        H262   1.081       .  S
C260        C261   1.380       .  A
C260        C324   1.479       .  S
C261        H263   1.082       .  S
N264        C268   1.347       .  A
N264        N265   1.321       .  A
N265        C266   1.347       .  A
C266        C267   1.385       .  A
C266        H269   1.082       .  S
C267        C268   1.386       .  A
C267        C831   1.478       .  S
C268        H270   1.082       .  S
N271        C275   1.344       .  A
N271       Cu279   2.088       .  S
N271        N272   1.321       .  A
N272        C273   1.342       .  A
N272       Cu278   2.054       .  S
C273        C274   1.386       .  A
C273        H276   1.081       .  S
C274        C275   1.393       .  A
C274        C331   1.523       .  S
C275        H277   1.080       .  S
Cu278       N281   2.058       .  S
Cu279       N289   2.089       .  S
Cu280       N282   2.072       .  S
Cu280       N288   2.073       .  S
N281        C285   1.346       .  A
N281        N282   1.321       .  A
N282        C283   1.340       .  A
C283        C284   1.387       .  A
C283        H286   1.081       .  S
C284        C285   1.382       .  A
C284        C300   1.481       .  S
C285        H287   1.081       .  S
N288        C292   1.346       .  A
N288        N289   1.322       .  A
N289        C290   1.348       .  A
C290        C291   1.387       .  A
C290        H293   1.082       .  S
C291        C292   1.384       .  A
C291        C807   1.478   1_545  S
C292        H294   1.082       .  S
C295        C296   1.522       .  S
C295        C301   1.544       .  S
C295        C299   1.530       .  S
C296        H303   1.086       .  S
C296        C297   1.366       .  D
C297        C298   1.555       .  S
C298        C302   1.561       .  S
C298        C300   1.545       .  S
C298        H304   1.107       .  S
C299        H305   1.081       .  S
C299        C300   1.363       .  D
C301        H306   1.081       .  S
C301        C302   1.371       .  D
C302        C354   1.518       .  S
C307        C308   1.530       .  S
C307        C313   1.542       .  S
C307        C311   1.528       .  S
C308        H315   1.080       .  S
C308        C309   1.361       .  D
C309        C310   1.540       .  S
C310        C314   1.557       .  S
C310        C312   1.548       .  S
C310        H316   1.106       .  S
C311        H317   1.085       .  S
C311        C312   1.366       .  D
C313        H318   1.085       .  S
C313        C314   1.372       .  D
C314        C347   1.502       .  S
C319        C320   1.521       .  S
C319        C325   1.543       .  S
C319        C323   1.527       .  S
C320        H327   1.086       .  S
C320        C321   1.359       .  D
C321        C322   1.550       .  S
C322        C326   1.562       .  S
C322        C324   1.544       .  S
C322        H328   1.104       .  S
C323        H329   1.081       .  S
C323        C324   1.362       .  D
C325        H330   1.081       .  S
C325        C326   1.381       .  D
C326        C356   1.528       .  S
C331        C332   1.532       .  S
C331        C337   1.544       .  S
C331        C335   1.528       .  S
C332        H339   1.082       .  S
C332        C333   1.362       .  D
C333        C334   1.540       .  S
C334        C338   1.555       .  S
C334        C336   1.547       .  S
C334        H340   1.107       .  S
C335        H341   1.081       .  S
C335        C336   1.368       .  D
C336        C345   1.490       .  S
C337        H342   1.082       .  S
C337        C338   1.369       .  D
C343        C344   1.430       .  A
C343        C348   1.426       .  A
C343       C1432   1.539       .  S
C344        C345   1.416       .  A
C344        H349   1.079       .  S
C345        C346   1.392       .  A
C346        C347   1.393       .  A
C346        H350   1.081       .  S
C347        C348   1.415       .  A
C348        H351   1.077       .  S
C352        C353   1.417       .  A
C352        C357   1.421       .  A
C352       C1423   1.539       .  S
C353        C354   1.422       .  A
C353        H358   1.075       .  S
C354        C355   1.408       .  A
C355        C356   1.413       .  A
C355        H359   1.074       .  S
C356        C357   1.421       .  A
C357        H360   1.071       .  S
C361        C362   1.429   1_554  A
C362        C363   1.412       .  A
C362        H367   1.078       .  S
C363        C492   1.492       .  S
C364        C365   1.397       .  A
C364        H368   1.082       .  S
C365        C366   1.418       .  A
C365        C518   1.505       .  S
C366        H369   1.074       .  S
C370        C371   1.436       .  A
C371        C372   1.415       .  A
C371        H376   1.078       .  S
C372        C373   1.385       .  A
C372        C477   1.486       .  S
C373        H377   1.086       .  S
C374        C375   1.410       .  A
C374        C501   1.474       .  S
C375        H378   1.078       .  S
N379        C383   1.340       .  A
N379       Cu387   2.069       .  S
N380        C381   1.345       .  A
N380       Cu386   2.057       .  S
C381        C382   1.383       .  A
C381        H384   1.082       .  S
C382        C499   1.511   1_554  S
C383        H385   1.080       .  S
Cu386      N1469   2.058   1_455  S
Cu387       N397   2.069       .  S
Cu388       N390   2.076       .  S
Cu388      N1476   2.075       .  S
N389        C393   1.346       .  A
N389      Cu1466   2.058       .  S
N390        C391   1.340       .  A
C391        H394   1.080       .  S
C392        C393   1.385       .  A
C392        C487   1.517   1_554  S
C393        H395   1.082       .  S
N396       C1480   1.345   1_455  A
N396      Cu1468   2.075   1_455  S
N396        N397   1.320       .  A
N397        C398   1.346       .  A
C398        C399   1.384       .  A
C398        H401   1.082       .  S
C399       C1480   1.385   1_455  A
C399        C783   1.473       .  S
C400       C1479   1.385       .  A
C400        H402   1.082       .  S
C400       N1476   1.345       .  A
N403        C407   1.343       .  A
N403        N404   1.320       .  A
N404        C405   1.342       .  A
N404       Cu410   2.051       .  S
C405        C406   1.386       .  A
C405        H408   1.081       .  S
C406        C407   1.392       .  A
C406        C475   1.521       .  S
C407        H409   1.081       .  S
Cu410      N1493   2.054   1_455  S
Cu411       N421   2.082       .  S
Cu412      N1500   2.066       .  S
N413        C417   1.344       .  A
N413      Cu1490   2.054       .  S
N413        N414   1.320       .  A
N414        C415   1.341       .  A
C415        C416   1.386       .  A
C415        H418   1.081       .  S
C416        C417   1.380       .  A
C416        C513   1.477       .  S
C417        H419   1.082       .  S
N420       C1504   1.344       .  A
N420      Cu1492   2.066       .  S
N420        N421   1.322   1_655  A
N421        C422   1.347       .  A
C422        C423   1.385       .  A
C422        H425   1.082       .  S
C423       C1504   1.382   1_455  A
C423        C579   1.473   1_545  S
C424       C1503   1.382       .  A
C424        H426   1.082       .  S
C424       N1500   1.344       .  A
N427        C431   1.339       .  A
N427       Cu435   2.075       .  S
N427        N428   1.322       .  A
N428        C429   1.346       .  A
N428       Cu434   2.053       .  S
C429        C430   1.381       .  A
C429        H432   1.082       .  S
C430        C431   1.386       .  A
C430        C489   1.481       .  S
C431        H433   1.081       .  S
Cu434       N437   2.052       .  S
Cu435       N445   2.077       .  S
Cu436       N438   2.082       .  S
Cu436       N444   2.082       .  S
N437        C441   1.344       .  A
N437        N438   1.322       .  A
N438        C439   1.341       .  A
C439        C440   1.388       .  A
C439        H442   1.081       .  S
C440        C441   1.380       .  A
C440        C504   1.479       .  S
C441        H443   1.082       .  S
N444        C448   1.347       .  A
N444        N445   1.321       .  A
N445        C446   1.347       .  A
C446        C447   1.385       .  A
C446        H449   1.082       .  S
C447        C448   1.386       .  A
C447       C1011   1.478       .  S
C448        H450   1.082       .  S
N451        C455   1.344       .  A
N451       Cu459   2.088       .  S
N451        N452   1.321       .  A
N452        C453   1.342       .  A
N452       Cu458   2.054       .  S
C453        C454   1.386       .  A
C453        H456   1.081       .  S
C454        C455   1.393       .  A
C454        C511   1.523       .  S
C455        H457   1.080       .  S
Cu458       N461   2.058       .  S
Cu459       N469   2.089       .  S
Cu460       N462   2.072       .  S
Cu460       N468   2.073       .  S
N461        C465   1.346       .  A
N461        N462   1.321       .  A
N462        C463   1.340       .  A
C463        C464   1.387       .  A
C463        H466   1.081       .  S
C464        C465   1.382       .  A
C464        C480   1.481       .  S
C465        H467   1.081       .  S
N468        C472   1.346       .  A
N468        N469   1.322       .  A
N469        C470   1.348       .  A
C470        C471   1.387       .  A
C470        H473   1.082       .  S
C471        C472   1.384       .  A
C471        C987   1.478   1_545  S
C472        H474   1.082       .  S
C475        C476   1.522       .  S
C475        C481   1.544       .  S
C475        C479   1.530       .  S
C476        H483   1.086       .  S
C476        C477   1.366       .  D
C477        C478   1.555       .  S
C478        C482   1.561       .  S
C478        C480   1.545       .  S
C478        H484   1.107       .  S
C479        H485   1.081       .  S
C479        C480   1.363       .  D
C481        H486   1.081       .  S
C481        C482   1.371       .  D
C482        C534   1.518       .  S
C487        C488   1.530       .  S
C487        C493   1.542       .  S
C487        C491   1.528   1_556  S
C488        H495   1.080       .  S
C488        C489   1.361       .  D
C489        C490   1.540       .  S
C490        C494   1.557       .  S
C490        C492   1.548       .  S
C490        H496   1.106       .  S
C491        H497   1.085       .  S
C491        C492   1.366   1_554  D
C493        H498   1.085       .  S
C493        C494   1.372       .  D
C494        C527   1.502       .  S
C499        C500   1.521       .  S
C499        C505   1.543       .  S
C499        C503   1.527       .  S
C500        H507   1.086   1_556  S
C500        C501   1.359       .  D
C501        C502   1.550       .  S
C502        C506   1.562       .  S
C502        C504   1.544       .  S
C502        H508   1.104       .  S
C503        H509   1.081       .  S
C503        C504   1.362       .  D
C505        H510   1.081       .  S
C505        C506   1.381       .  D
C506        C536   1.528       .  S
C511        C512   1.532       .  S
C511        C517   1.544       .  S
C511        C515   1.528       .  S
C512        H519   1.082       .  S
C512        C513   1.362       .  D
C513        C514   1.540       .  S
C514        C518   1.555       .  S
C514        C516   1.547       .  S
C514        H520   1.107       .  S
C515        H521   1.081       .  S
C515        C516   1.368       .  D
C516        C525   1.490       .  S
C517        H522   1.082       .  S
C517        C518   1.369       .  D
C523        C524   1.430       .  A
C523        C528   1.426       .  A
C523       C1612   1.539       .  S
C524        C525   1.416       .  A
C524        H529   1.079       .  S
C525        C526   1.392       .  A
C526        C527   1.393       .  A
C526        H530   1.081       .  S
C527        C528   1.415       .  A
C528        H531   1.077       .  S
C532        C533   1.417       .  A
C532        C537   1.421       .  A
C532       C1603   1.539       .  S
C533        C534   1.422       .  A
C533        H538   1.075       .  S
C534        C535   1.408       .  A
C535        C536   1.413       .  A
C535        H539   1.074       .  S
C536        C537   1.421       .  A
C537        H540   1.071       .  S
C541        C542   1.429       .  A
C541        C726   1.424       .  A
C541        C730   1.539       .  S
C542        C543   1.412       .  A
C542        H547   1.078       .  S
C543        C724   1.397       .  A
C543        C672   1.492       .  S
C544        C903   1.397   1_554  A
C544        C545   1.397       .  A
C544        H548   1.082       .  S
C545        C546   1.418       .  A
C545        C698   1.505       .  S
C546        C901   1.424       .  A
C546        H549   1.074       .  S
C550        C551   1.436   1_556  A
C550        C915   1.427       .  A
C550        C901   1.539   1_556  S
C551        C552   1.415       .  A
C551        H556   1.078       .  S
C552        C553   1.385   1_554  A
C552        C657   1.486       .  S
C553        C914   1.383       .  A
C553        H557   1.086       .  S
C554        C733   1.383       .  A
C554        C555   1.410       .  A
C554        C681   1.474       .  S
C555        C730   1.427       .  A
C555        H558   1.078       .  S
N559        C563   1.340       .  A
N559       Cu567   2.069       .  S
N559        N920   1.322       .  A
N560        C561   1.345       .  A
N560       Cu566   2.057       .  S
N560        N739   1.322       .  A
C561        C562   1.383       .  A
C561        H564   1.082       .  S
C562        C743   1.386       .  A
C562        C679   1.511       .  S
C563        C922   1.386       .  A
C563        H565   1.080   1_554  S
Cu566      N1649   2.058   1_455  S
Cu567       N577   2.069       .  S
Cu568       N570   2.076       .  S
Cu568      N1656   2.075       .  S
N569        C573   1.346       .  A
N569      Cu1646   2.058       .  S
N569        N750   1.322       .  A
N570        C571   1.340       .  A
N570        N929   1.322       .  A
C571        C932   1.389       .  A
C571        H574   1.080       .  S
C572        C751   1.389       .  A
C572        C573   1.385       .  A
C572        C667   1.517       .  S
C573        H575   1.082       .  S
N576       C1660   1.345   1_455  A
N576      Cu1648   2.075   1_455  S
N576        N577   1.320       .  A
N577        C578   1.346       .  A
C578        C579   1.384   1_554  A
C578        H581   1.082   1_554  S
C579       C1660   1.385   1_456  A
C580       C1659   1.385   1_554  A
C580        H582   1.082       .  S
C580       N1656   1.345       .  A
N583        C587   1.343       .  A
N583       Cu951   2.082       .  S
N583        N584   1.320       .  A
N584        C585   1.342       .  A
N584       Cu590   2.051       .  S
C585        C586   1.386       .  A
C585        H588   1.081       .  S
C586        C587   1.392       .  A
C586        C655   1.521   1_556  S
C587        H589   1.081       .  S
Cu590      N1673   2.054   1_455  S
Cu591       N763   2.082       .  S
Cu591       N601   2.082       .  S
Cu592       N774   2.064       .  S
Cu592      N1680   2.066       .  S
N593        C597   1.344       .  A
N593      Cu1670   2.054       .  S
N593        N594   1.320       .  A
N594        C595   1.341       .  A
N594       Cu952   2.064       .  S
C595        C596   1.386   1_556  A
C595        H598   1.081   1_556  S
C596        C597   1.380   1_554  A
C596        C693   1.477       .  S
C597        H599   1.082       .  S
N600       C1684   1.344       .  A
N600      Cu1672   2.066       .  S
N600        N601   1.322   1_655  A
N601        C602   1.347       .  A
C602        C603   1.385       .  A
C602        H605   1.082       .  S
C603       C1684   1.382   1_455  A
C604       C1683   1.382       .  A
C604        H606   1.082       .  S
C604       N1680   1.344       .  A
N607        C611   1.339       .  A
N607       Cu615   2.075       .  S
N607        N608   1.322       .  A
N608        C609   1.346       .  A
N608       Cu614   2.053       .  S
C609        C610   1.381       .  A
C609        H612   1.082       .  S
C610        C611   1.386       .  A
C610        C669   1.481       .  S
C611        H613   1.081       .  S
Cu614       N617   2.052       .  S
Cu615       N625   2.077       .  S
Cu616       N618   2.082       .  S
Cu616       N624   2.082       .  S
N617        C621   1.344       .  A
N617        N618   1.322       .  A
N618        C619   1.341       .  A
C619        C620   1.388       .  A
C619        H622   1.081       .  S
C620        C621   1.380       .  A
C620        C684   1.479       .  S
C621        H623   1.082       .  S
N624        C628   1.347       .  A
N624        N625   1.321       .  A
N625        C626   1.347       .  A
C626        C627   1.385       .  A
C626        H629   1.082       .  S
C627        C628   1.386       .  A
C628        H630   1.082       .  S
N631        C635   1.344       .  A
N631       Cu639   2.088       .  S
N631        N632   1.321       .  A
N632        C633   1.342       .  A
N632       Cu638   2.054       .  S
C633        C634   1.386       .  A
C633        H636   1.081       .  S
C634        C635   1.393       .  A
C634        C691   1.523       .  S
C635        H637   1.080       .  S
Cu638       N641   2.058       .  S
Cu639       N649   2.089       .  S
Cu640       N642   2.072       .  S
Cu640       N648   2.073       .  S
N641        C645   1.346       .  A
N641        N642   1.321       .  A
N642        C643   1.340       .  A
C643        C644   1.387       .  A
C643        H646   1.081       .  S
C644        C645   1.382       .  A
C644        C660   1.481       .  S
C645        H647   1.081       .  S
N648        C652   1.346       .  A
N648        N649   1.322       .  A
N649        C650   1.348       .  A
C650        C651   1.387       .  A
C650        H653   1.082       .  S
C651        C652   1.384       .  A
C652        H654   1.082       .  S
C655        C656   1.522   1_554  S
C655        C661   1.544       .  S
C655        C659   1.530       .  S
C656        H663   1.086       .  S
C656        C657   1.366   1_556  D
C657        C658   1.555       .  S
C658        C662   1.561       .  S
C658        C660   1.545       .  S
C658        H664   1.107       .  S
C659        H665   1.081       .  S
C659        C660   1.363       .  D
C661        H666   1.081       .  S
C661        C662   1.371       .  D
C662        C714   1.518       .  S
C667        C668   1.530       .  S
C667        C673   1.542       .  S
C667        C671   1.528       .  S
C668        H675   1.080       .  S
C668        C669   1.361       .  D
C669        C670   1.540       .  S
C670        C674   1.557       .  S
C670        C672   1.548       .  S
C670        H676   1.106       .  S
C671        H677   1.085       .  S
C671        C672   1.366       .  D
C673        H678   1.085       .  S
C673        C674   1.372       .  D
C674        C707   1.502       .  S
C679        C680   1.521       .  S
C679        C685   1.543       .  S
C679        C683   1.527       .  S
C680        H687   1.086       .  S
C680        C681   1.359       .  D
C681        C682   1.550       .  S
C682        C686   1.562       .  S
C682        C684   1.544       .  S
C682        H688   1.104       .  S
C683        H689   1.081       .  S
C683        C684   1.362       .  D
C685        H690   1.081       .  S
C685        C686   1.381       .  D
C686        C716   1.528       .  S
C691        C692   1.532       .  S
C691        C697   1.544       .  S
C691        C695   1.528       .  S
C692        H699   1.082       .  S
C692        C693   1.362       .  D
C693        C694   1.540       .  S
C694        C698   1.555       .  S
C694        C696   1.547       .  S
C694        H700   1.107       .  S
C695        H701   1.081       .  S
C695        C696   1.368       .  D
C696        C705   1.490       .  S
C697        H702   1.082       .  S
C697        C698   1.369       .  D
C703        C704   1.430       .  A
C703        C708   1.426       .  A
C703       C1792   1.539       .  S
C704        C705   1.416       .  A
C704        H709   1.079       .  S
C705        C706   1.392       .  A
C706        C707   1.393       .  A
C706        H710   1.081       .  S
C707        C708   1.415       .  A
C708        H711   1.077       .  S
C712        C713   1.417       .  A
C712        C717   1.421       .  A
C712       C1783   1.539       .  S
C713        C714   1.422       .  A
C713        H718   1.075       .  S
C714        C715   1.408       .  A
C715        C716   1.413       .  A
C715        H719   1.074       .  S
C716        C717   1.421       .  A
C717        H720   1.071       .  S
C721        C722   1.429       .  A
C721        C906   1.424       .  A
C721        C910   1.539       .  S
C722        C723   1.412       .  A
C722        H727   1.078       .  S
C723        C904   1.397       .  A
C723        C852   1.492       .  S
C724        C725   1.397       .  A
C724        H728   1.082       .  S
C725        C726   1.418       .  A
C725        C878   1.505       .  S
C726        H729   1.074       .  S
C730        C731   1.436       .  A
C731        C732   1.415       .  A
C731        H736   1.078       .  S
C732        C733   1.385       .  A
C732        C837   1.486       .  S
C733        H737   1.086       .  S
C734        C913   1.383       .  A
C734        C735   1.410       .  A
C734        C861   1.474       .  S
C735        C910   1.427       .  A
C735        H738   1.078       .  S
N739        C743   1.340       .  A
N739       Cu747   2.069       .  S
N740        C741   1.345       .  A
N740       Cu746   2.057       .  S
N740        N919   1.322       .  A
C741        C742   1.383       .  A
C741        H744   1.082       .  S
C742        C923   1.386       .  A
C742        C859   1.511       .  S
C743        H745   1.080       .  S
Cu746      N1829   2.058   1_455  S
Cu747       N757   2.069       .  S
Cu748       N750   2.076       .  S
Cu748      N1836   2.075       .  S
N749        C753   1.346       .  A
N749      Cu1826   2.058       .  S
N749        N930   1.322       .  A
N750        C751   1.340       .  A
C751        H754   1.080       .  S
C752        C931   1.389       .  A
C752        C753   1.385       .  A
C752        C847   1.517       .  S
C753        H755   1.082       .  S
N756       C1840   1.345   1_455  A
N756      Cu1828   2.075   1_455  S
N756        N757   1.320       .  A
N757        C758   1.346       .  A
C758        C759   1.384       .  A
C758        H761   1.082       .  S
C759       C1840   1.385   1_455  A
C760       C1839   1.385       .  A
C760        H762   1.082       .  S
C760       N1836   1.345       .  A
N763        C767   1.343       .  A
N763        N764   1.320       .  A
N764        C765   1.342       .  A
N764       Cu770   2.051       .  S
C765        C766   1.386       .  A
C765        H768   1.081       .  S
C766        C767   1.392       .  A
C766        C835   1.521       .  S
C767        H769   1.081       .  S
Cu770      N1853   2.054   1_455  S
Cu771       N943   2.082       .  S
Cu771       N781   2.082       .  S
Cu772       N954   2.064       .  S
Cu772      N1860   2.066       .  S
N773        C777   1.344       .  A
N773      Cu1850   2.054       .  S
N773        N774   1.320       .  A
N774        C775   1.341       .  A
C775        C776   1.386       .  A
C775        H778   1.081       .  S
C776        C777   1.380       .  A
C776        C873   1.477       .  S
C777        H779   1.082       .  S
N780       C1864   1.344       .  A
N780      Cu1852   2.066       .  S
N780        N781   1.322   1_655  A
N781        C782   1.347       .  A
C782        C783   1.385       .  A
C782        H785   1.082       .  S
C783       C1864   1.382   1_455  A
C784       C1863   1.382       .  A
C784        H786   1.082       .  S
C784       N1860   1.344       .  A
N787        C791   1.339       .  A
N787       Cu795   2.075       .  S
N787        N788   1.322       .  A
N788        C789   1.346       .  A
N788       Cu794   2.053       .  S
C789        C790   1.381       .  A
C789        H792   1.082       .  S
C790        C791   1.386       .  A
C790        C849   1.481       .  S
C791        H793   1.081       .  S
Cu794       N797   2.052       .  S
Cu795       N805   2.077       .  S
Cu796       N798   2.082       .  S
Cu796       N804   2.082       .  S
N797        C801   1.344       .  A
N797        N798   1.322       .  A
N798        C799   1.341       .  A
C799        C800   1.388       .  A
C799        H802   1.081       .  S
C800        C801   1.380       .  A
C800        C864   1.479       .  S
C801        H803   1.082       .  S
N804        C808   1.347       .  A
N804        N805   1.321       .  A
N805        C806   1.347       .  A
C806        C807   1.385       .  A
C806        H809   1.082       .  S
C807        C808   1.386       .  A
C808        H810   1.082       .  S
N811        C815   1.344       .  A
N811       Cu819   2.088       .  S
N811        N812   1.321       .  A
N812        C813   1.342       .  A
N812       Cu818   2.054       .  S
C813        C814   1.386       .  A
C813        H816   1.081       .  S
C814        C815   1.393       .  A
C814        C871   1.523       .  S
C815        H817   1.080       .  S
Cu818       N821   2.058       .  S
Cu819       N829   2.089       .  S
Cu820       N822   2.072       .  S
Cu820       N828   2.073       .  S
N821        C825   1.346       .  A
N821        N822   1.321       .  A
N822        C823   1.340       .  A
C823        C824   1.387       .  A
C823        H826   1.081       .  S
C824        C825   1.382       .  A
C824        C840   1.481       .  S
C825        H827   1.081       .  S
N828        C832   1.346       .  A
N828        N829   1.322       .  A
N829        C830   1.348       .  A
C830        C831   1.387       .  A
C830        H833   1.082       .  S
C831        C832   1.384       .  A
C832        H834   1.082       .  S
C835        C836   1.522       .  S
C835        C841   1.544       .  S
C835        C839   1.530       .  S
C836        H843   1.086       .  S
C836        C837   1.366       .  D
C837        C838   1.555       .  S
C838        C842   1.561       .  S
C838        C840   1.545       .  S
C838        H844   1.107       .  S
C839        H845   1.081       .  S
C839        C840   1.363       .  D
C841        H846   1.081       .  S
C841        C842   1.371       .  D
C842        C894   1.518       .  S
C847        C848   1.530       .  S
C847        C853   1.542       .  S
C847        C851   1.528       .  S
C848        H855   1.080       .  S
C848        C849   1.361       .  D
C849        C850   1.540       .  S
C850        C854   1.557       .  S
C850        C852   1.548       .  S
C850        H856   1.106       .  S
C851        H857   1.085       .  S
C851        C852   1.366       .  D
C853        H858   1.085       .  S
C853        C854   1.372       .  D
C854        C887   1.502       .  S
C859        C860   1.521       .  S
C859        C865   1.543       .  S
C859        C863   1.527       .  S
C860        H867   1.086       .  S
C860        C861   1.359       .  D
C861        C862   1.550       .  S
C862        C866   1.562       .  S
C862        C864   1.544       .  S
C862        H868   1.104       .  S
C863        H869   1.081       .  S
C863        C864   1.362       .  D
C865        H870   1.081       .  S
C865        C866   1.381       .  D
C866        C896   1.528       .  S
C871        C872   1.532       .  S
C871        C877   1.544       .  S
C871        C875   1.528       .  S
C872        H879   1.082       .  S
C872        C873   1.362       .  D
C873        C874   1.540       .  S
C874        C878   1.555       .  S
C874        C876   1.547       .  S
C874        H880   1.107       .  S
C875        H881   1.081       .  S
C875        C876   1.368       .  D
C876        C885   1.490       .  S
C877        H882   1.082       .  S
C877        C878   1.369       .  D
C883        C884   1.430       .  A
C883        C888   1.426       .  A
C883       C1972   1.539       .  S
C884        C885   1.416       .  A
C884        H889   1.079       .  S
C885        C886   1.392       .  A
C886        C887   1.393       .  A
C886        H890   1.081       .  S
C887        C888   1.415       .  A
C888        H891   1.077       .  S
C892        C893   1.417       .  A
C892        C897   1.421       .  A
C892       C1963   1.539       .  S
C893        C894   1.422       .  A
C893        H898   1.075       .  S
C894        C895   1.408       .  A
C895        C896   1.413       .  A
C895        H899   1.074       .  S
C896        C897   1.421       .  A
C897        H900   1.071       .  S
C901        C902   1.429   1_554  A
C902        C903   1.412       .  A
C902        H907   1.078       .  S
C903       C1032   1.492       .  S
C904        C905   1.397       .  A
C904        H908   1.082       .  S
C905        C906   1.418       .  A
C905       C1058   1.505       .  S
C906        H909   1.074       .  S
C910        C911   1.436       .  A
C911        C912   1.415       .  A
C911        H916   1.078       .  S
C912        C913   1.385       .  A
C912       C1017   1.486       .  S
C913        H917   1.086       .  S
C914        C915   1.410       .  A
C914       C1041   1.474       .  S
C915        H918   1.078       .  S
N919        C923   1.340       .  A
N919       Cu927   2.069       .  S
N920        C921   1.345       .  A
N920       Cu926   2.057       .  S
C921        C922   1.383       .  A
C921        H924   1.082       .  S
C922       C1039   1.511   1_554  S
C923        H925   1.080       .  S
Cu926      N2009   2.058   1_455  S
Cu927       N937   2.069       .  S
Cu928       N930   2.076       .  S
Cu928      N2016   2.075       .  S
N929        C933   1.346       .  A
N929      Cu2006   2.058       .  S
N930        C931   1.340       .  A
C931        H934   1.080       .  S
C932        C933   1.385       .  A
C932       C1027   1.517   1_554  S
C933        H935   1.082       .  S
N936       C2020   1.345   1_455  A
N936      Cu2008   2.075   1_455  S
N936        N937   1.320       .  A
N937        C938   1.346       .  A
C938        C939   1.384       .  A
C938        H941   1.082       .  S
C939       C2020   1.385   1_455  A
C940       C2019   1.385       .  A
C940        H942   1.082       .  S
C940       N2016   1.345       .  A
N943        C947   1.343       .  A
N943        N944   1.320       .  A
N944        C945   1.342       .  A
N944       Cu950   2.051       .  S
C945        C946   1.386       .  A
C945        H948   1.081       .  S
C946        C947   1.392       .  A
C946       C1015   1.521       .  S
C947        H949   1.081       .  S
Cu950      N2033   2.054   1_455  S
Cu951       N961   2.082       .  S
Cu952      N2040   2.066       .  S
N953        C957   1.344       .  A
N953      Cu2030   2.054       .  S
N953        N954   1.320       .  A
N954        C955   1.341       .  A
C955        C956   1.386       .  A
C955        H958   1.081       .  S
C956        C957   1.380       .  A
C956       C1053   1.477       .  S
C957        H959   1.082       .  S
N960       C2044   1.344       .  A
N960      Cu2032   2.066       .  S
N960        N961   1.322   1_655  A
N961        C962   1.347       .  A
C962        C963   1.385       .  A
C962        H965   1.082       .  S
C963       C2044   1.382   1_455  A
C964       C2043   1.382       .  A
C964        H966   1.082       .  S
C964       N2040   1.344       .  A
N967        C971   1.339       .  A
N967       Cu975   2.075       .  S
N967        N968   1.322       .  A
N968        C969   1.346       .  A
N968       Cu974   2.053       .  S
C969        C970   1.381       .  A
C969        H972   1.082       .  S
C970        C971   1.386       .  A
C970       C1029   1.481       .  S
C971        H973   1.081       .  S
Cu974       N977   2.052       .  S
Cu975       N985   2.077       .  S
Cu976       N978   2.082       .  S
Cu976       N984   2.082       .  S
N977        C981   1.344       .  A
N977        N978   1.322       .  A
N978        C979   1.341       .  A
C979        C980   1.388       .  A
C979        H982   1.081       .  S
C980        C981   1.380       .  A
C980       C1044   1.479       .  S
C981        H983   1.082       .  S
N984        C988   1.347       .  A
N984        N985   1.321       .  A
N985        C986   1.347       .  A
C986        C987   1.385       .  A
C986        H989   1.082       .  S
C987        C988   1.386       .  A
C988        H990   1.082       .  S
N991        C995   1.344       .  A
N991       Cu999   2.088       .  S
N991        N992   1.321       .  A
N992        C993   1.342       .  A
N992       Cu998   2.054       .  S
C993        C994   1.386       .  A
C993        H996   1.081       .  S
C994        C995   1.393       .  A
C994       C1051   1.523       .  S
C995        H997   1.080       .  S
Cu998      N1001   2.058       .  S
Cu999      N1009   2.089       .  S
Cu1000     N1002   2.072       .  S
Cu1000     N1008   2.073       .  S
N1001      C1005   1.346       .  A
N1001      N1002   1.321       .  A
N1002      C1003   1.340       .  A
C1003      C1004   1.387       .  A
C1003      H1006   1.081       .  S
C1004      C1005   1.382       .  A
C1004      C1020   1.481       .  S
C1005      H1007   1.081       .  S
N1008      C1012   1.346       .  A
N1008      N1009   1.322       .  A
N1009      C1010   1.348       .  A
C1010      C1011   1.387       .  A
C1010      H1013   1.082       .  S
C1011      C1012   1.384       .  A
C1012      H1014   1.082       .  S
C1015      C1016   1.522       .  S
C1015      C1021   1.544       .  S
C1015      C1019   1.530       .  S
C1016      H1023   1.086       .  S
C1016      C1017   1.366       .  D
C1017      C1018   1.555       .  S
C1018      C1022   1.561       .  S
C1018      C1020   1.545       .  S
C1018      H1024   1.107       .  S
C1019      H1025   1.081       .  S
C1019      C1020   1.363       .  D
C1021      H1026   1.081       .  S
C1021      C1022   1.371       .  D
C1022      C1074   1.518       .  S
C1027      C1028   1.530       .  S
C1027      C1033   1.542       .  S
C1027      C1031   1.528   1_556  S
C1028      H1035   1.080       .  S
C1028      C1029   1.361       .  D
C1029      C1030   1.540       .  S
C1030      C1034   1.557       .  S
C1030      C1032   1.548       .  S
C1030      H1036   1.106       .  S
C1031      H1037   1.085       .  S
C1031      C1032   1.366   1_554  D
C1033      H1038   1.085       .  S
C1033      C1034   1.372       .  D
C1034      C1067   1.502       .  S
C1039      C1040   1.521       .  S
C1039      C1045   1.543       .  S
C1039      C1043   1.527       .  S
C1040      H1047   1.086   1_556  S
C1040      C1041   1.359       .  D
C1041      C1042   1.550       .  S
C1042      C1046   1.562       .  S
C1042      C1044   1.544       .  S
C1042      H1048   1.104       .  S
C1043      H1049   1.081       .  S
C1043      C1044   1.362       .  D
C1045      H1050   1.081       .  S
C1045      C1046   1.381       .  D
C1046      C1076   1.528       .  S
C1051      C1052   1.532       .  S
C1051      C1057   1.544       .  S
C1051      C1055   1.528       .  S
C1052      H1059   1.082       .  S
C1052      C1053   1.362       .  D
C1053      C1054   1.540       .  S
C1054      C1058   1.555       .  S
C1054      C1056   1.547       .  S
C1054      H1060   1.107       .  S
C1055      H1061   1.081       .  S
C1055      C1056   1.368       .  D
C1056      C1065   1.490       .  S
C1057      H1062   1.082       .  S
C1057      C1058   1.369       .  D
C1063      C1064   1.430       .  A
C1063      C1068   1.426       .  A
C1063      C2152   1.539       .  S
C1064      C1065   1.416       .  A
C1064      H1069   1.079       .  S
C1065      C1066   1.392       .  A
C1066      C1067   1.393       .  A
C1066      H1070   1.081       .  S
C1067      C1068   1.415       .  A
C1068      H1071   1.077       .  S
C1072      C1073   1.417       .  A
C1072      C1077   1.421       .  A
C1072      C2143   1.539       .  S
C1073      C1074   1.422       .  A
C1073      H1078   1.075       .  S
C1074      C1075   1.408       .  A
C1075      C1076   1.413       .  A
C1075      H1079   1.074       .  S
C1076      C1077   1.421       .  A
C1077      H1080   1.071       .  S
C1081      C1082   1.429       .  A
C1081      C1266   1.424       .  A
C1081      C1270   1.539       .  S
C1082      C1083   1.412       .  A
C1082      H1087   1.078       .  S
C1083      C1264   1.397       .  A
C1083      C1212   1.492       .  S
C1084      C1443   1.397   1_554  A
C1084      C1085   1.397       .  A
C1084      H1088   1.082       .  S
C1085      C1086   1.418       .  A
C1085      C1238   1.505       .  S
C1086      C1441   1.424       .  A
C1086      H1089   1.074       .  S
C1090      C1091   1.436   1_556  A
C1090      C1455   1.427       .  A
C1090      C1441   1.539   1_556  S
C1091      C1092   1.415       .  A
C1091      H1096   1.078       .  S
C1092      C1093   1.385   1_554  A
C1092      C1197   1.486       .  S
C1093      C1454   1.383       .  A
C1093      H1097   1.086       .  S
C1094      C1273   1.383       .  A
C1094      C1095   1.410       .  A
C1094      C1221   1.474       .  S
C1095      C1270   1.427       .  A
C1095      H1098   1.078       .  S
N1099      C1103   1.340       .  A
N1099     Cu1107   2.069       .  S
N1099      N1460   1.322       .  A
N1100      C1101   1.345       .  A
N1100     Cu1106   2.057       .  S
N1100      N1279   1.322       .  A
C1101      C1102   1.383       .  A
C1101      H1104   1.082       .  S
C1102      C1283   1.386       .  A
C1102      C1219   1.511       .  S
C1103      C1462   1.386       .  A
C1103      H1105   1.080   1_554  S
Cu1107     N1117   2.069       .  S
Cu1108     N1110   2.076       .  S
N1109      C1113   1.346       .  A
N1109      N1290   1.322       .  A
N1110      C1111   1.340       .  A
N1110      N1469   1.322       .  A
C1111      C1472   1.389       .  A
C1111      H1114   1.080       .  S
C1112      C1291   1.389       .  A
C1112      C1113   1.385       .  A
C1112      C1207   1.517       .  S
C1113      H1115   1.082       .  S
N1116      N1117   1.320       .  A
N1117      C1118   1.346       .  A
C1118      C1119   1.384   1_554  A
C1118      H1121   1.082   1_554  S
C1119      C2043   1.473       .  S
C1120      H1122   1.082       .  S
N1123      C1127   1.343       .  A
N1123     Cu1491   2.082       .  S
N1123      N1124   1.320       .  A
N1124      C1125   1.342       .  A
N1124     Cu1130   2.051       .  S
C1125      C1126   1.386       .  A
C1125      H1128   1.081       .  S
C1126      C1127   1.392       .  A
C1126      C1195   1.521   1_556  S
C1127      H1129   1.081       .  S
Cu1131     N1303   2.082       .  S
Cu1131     N1141   2.082       .  S
Cu1132     N1314   2.064       .  S
N1133      C1137   1.344       .  A
N1133      N1134   1.320       .  A
N1134      C1135   1.341       .  A
N1134     Cu1492   2.064       .  S
C1135      C1136   1.386   1_556  A
C1135      H1138   1.081   1_556  S
C1136      C1137   1.380   1_554  A
C1136      C1233   1.477       .  S
C1137      H1139   1.082       .  S
N1140      N1141   1.322       .  A
N1141      C1142   1.347       .  A
C1142      C1143   1.385       .  A
C1142      H1145   1.082       .  S
C1143      C1839   1.473   1_545  S
C1144      H1146   1.082       .  S
N1147      C1151   1.339       .  A
N1147     Cu1155   2.075       .  S
N1147      N1148   1.322       .  A
N1148      C1149   1.346       .  A
N1148     Cu1154   2.053       .  S
C1149      C1150   1.381       .  A
C1149      H1152   1.082       .  S
C1150      C1151   1.386       .  A
C1150      C1209   1.481       .  S
C1151      H1153   1.081       .  S
Cu1154     N1157   2.052       .  S
Cu1155     N1165   2.077       .  S
Cu1156     N1158   2.082       .  S
Cu1156     N1164   2.082       .  S
N1157      C1161   1.344       .  A
N1157      N1158   1.322       .  A
N1158      C1159   1.341       .  A
C1159      C1160   1.388       .  A
C1159      H1162   1.081       .  S
C1160      C1161   1.380       .  A
C1160      C1224   1.479       .  S
C1161      H1163   1.082       .  S
N1164      C1168   1.347       .  A
N1164      N1165   1.321       .  A
N1165      C1166   1.347       .  A
C1166      C1167   1.385       .  A
C1166      H1169   1.082       .  S
C1167      C1168   1.386       .  A
C1167      C1731   1.478       .  S
C1168      H1170   1.082       .  S
N1171      C1175   1.344       .  A
N1171     Cu1179   2.088       .  S
N1171      N1172   1.321       .  A
N1172      C1173   1.342       .  A
N1172     Cu1178   2.054       .  S
C1173      C1174   1.386       .  A
C1173      H1176   1.081       .  S
C1174      C1175   1.393       .  A
C1174      C1231   1.523       .  S
C1175      H1177   1.080       .  S
Cu1178     N1181   2.058       .  S
Cu1179     N1189   2.089       .  S
Cu1180     N1182   2.072       .  S
Cu1180     N1188   2.073       .  S
N1181      C1185   1.346       .  A
N1181      N1182   1.321       .  A
N1182      C1183   1.340       .  A
C1183      C1184   1.387       .  A
C1183      H1186   1.081       .  S
C1184      C1185   1.382       .  A
C1184      C1200   1.481       .  S
C1185      H1187   1.081       .  S
N1188      C1192   1.346       .  A
N1188      N1189   1.322       .  A
N1189      C1190   1.348       .  A
C1190      C1191   1.387       .  A
C1190      H1193   1.082       .  S
C1191      C1192   1.384       .  A
C1191      C1707   1.478   1_545  S
C1192      H1194   1.082       .  S
C1195      C1196   1.522   1_554  S
C1195      C1201   1.544       .  S
C1195      C1199   1.530       .  S
C1196      H1203   1.086       .  S
C1196      C1197   1.366   1_556  D
C1197      C1198   1.555       .  S
C1198      C1202   1.561       .  S
C1198      C1200   1.545       .  S
C1198      H1204   1.107       .  S
C1199      H1205   1.081       .  S
C1199      C1200   1.363       .  D
C1201      H1206   1.081       .  S
C1201      C1202   1.371       .  D
C1202      C1254   1.518       .  S
C1207      C1208   1.530       .  S
C1207      C1213   1.542       .  S
C1207      C1211   1.528       .  S
C1208      H1215   1.080       .  S
C1208      C1209   1.361       .  D
C1209      C1210   1.540       .  S
C1210      C1214   1.557       .  S
C1210      C1212   1.548       .  S
C1210      H1216   1.106       .  S
C1211      H1217   1.085       .  S
C1211      C1212   1.366       .  D
C1213      H1218   1.085       .  S
C1213      C1214   1.372       .  D
C1214      C1247   1.502       .  S
C1219      C1220   1.521       .  S
C1219      C1225   1.543       .  S
C1219      C1223   1.527       .  S
C1220      H1227   1.086       .  S
C1220      C1221   1.359       .  D
C1221      C1222   1.550       .  S
C1222      C1226   1.562       .  S
C1222      C1224   1.544       .  S
C1222      H1228   1.104       .  S
C1223      H1229   1.081       .  S
C1223      C1224   1.362       .  D
C1225      H1230   1.081       .  S
C1225      C1226   1.381       .  D
C1226      C1256   1.528       .  S
C1231      C1232   1.532       .  S
C1231      C1237   1.544       .  S
C1231      C1235   1.528       .  S
C1232      H1239   1.082       .  S
C1232      C1233   1.362       .  D
C1233      C1234   1.540       .  S
C1234      C1238   1.555       .  S
C1234      C1236   1.547       .  S
C1234      H1240   1.107       .  S
C1235      H1241   1.081       .  S
C1235      C1236   1.368       .  D
C1236      C1245   1.490       .  S
C1237      H1242   1.082       .  S
C1237      C1238   1.369       .  D
C1243      C1244   1.430   1_455  A
C1243      C1248   1.426   1_455  A
C1244      C1245   1.416       .  A
C1244      H1249   1.079       .  S
C1245      C1246   1.392       .  A
C1246      C1247   1.393       .  A
C1246      H1250   1.081       .  S
C1247      C1248   1.415       .  A
C1248      H1251   1.077       .  S
C1252      C1253   1.417       .  A
C1252      C1257   1.421       .  A
C1253      C1254   1.422       .  A
C1253      H1258   1.075       .  S
C1254      C1255   1.408       .  A
C1255      C1256   1.413       .  A
C1255      H1259   1.074       .  S
C1256      C1257   1.421       .  A
C1257      H1260   1.071       .  S
C1261      C1262   1.429       .  A
C1261      C1446   1.424       .  A
C1261      C1450   1.539       .  S
C1262      C1263   1.412       .  A
C1262      H1267   1.078       .  S
C1263      C1444   1.397       .  A
C1263      C1392   1.492       .  S
C1264      C1265   1.397       .  A
C1264      H1268   1.082       .  S
C1265      C1266   1.418       .  A
C1265      C1418   1.505       .  S
C1266      H1269   1.074       .  S
C1270      C1271   1.436       .  A
C1271      C1272   1.415       .  A
C1271      H1276   1.078       .  S
C1272      C1273   1.385       .  A
C1272      C1377   1.486       .  S
C1273      H1277   1.086       .  S
C1274      C1453   1.383       .  A
C1274      C1275   1.410       .  A
C1274      C1401   1.474       .  S
C1275      C1450   1.427       .  A
C1275      H1278   1.078       .  S
N1279      C1283   1.340       .  A
N1279     Cu1287   2.069       .  S
N1280      C1281   1.345       .  A
N1280     Cu1286   2.057       .  S
N1280      N1459   1.322       .  A
C1281      C1282   1.383       .  A
C1281      H1284   1.082       .  S
C1282      C1463   1.386       .  A
C1282      C1399   1.511       .  S
C1283      H1285   1.080       .  S
Cu1287     N1297   2.069       .  S
Cu1288     N1290   2.076       .  S
N1289      C1293   1.346       .  A
N1289      N1470   1.322       .  A
N1290      C1291   1.340       .  A
C1291      H1294   1.080       .  S
C1292      C1471   1.389       .  A
C1292      C1293   1.385       .  A
C1292      C1387   1.517       .  S
C1293      H1295   1.082       .  S
N1296      N1297   1.320       .  A
N1297      C1298   1.346       .  A
C1298      C1299   1.384       .  A
C1298      H1301   1.082       .  S
C1299      C1683   1.473       .  S
C1300      H1302   1.082       .  S
N1303      C1307   1.343       .  A
N1303      N1304   1.320       .  A
N1304      C1305   1.342       .  A
N1304     Cu1310   2.051       .  S
C1305      C1306   1.386       .  A
C1305      H1308   1.081       .  S
C1306      C1307   1.392       .  A
C1306      C1375   1.521       .  S
C1307      H1309   1.081       .  S
Cu1311     N1483   2.082       .  S
Cu1311     N1321   2.082       .  S
Cu1312     N1494   2.064       .  S
N1313      C1317   1.344       .  A
N1313      N1314   1.320       .  A
N1314      C1315   1.341       .  A
C1315      C1316   1.386       .  A
C1315      H1318   1.081       .  S
C1316      C1317   1.380       .  A
C1316      C1413   1.477       .  S
C1317      H1319   1.082       .  S
N1320      N1321   1.322       .  A
N1321      C1322   1.347       .  A
C1322      C1323   1.385       .  A
C1322      H1325   1.082       .  S
C1323      C2019   1.473   1_545  S
C1324      H1326   1.082       .  S
N1327      C1331   1.339       .  A
N1327     Cu1335   2.075       .  S
N1327      N1328   1.322       .  A
N1328      C1329   1.346       .  A
N1328     Cu1334   2.053       .  S
C1329      C1330   1.381       .  A
C1329      H1332   1.082       .  S
C1330      C1331   1.386       .  A
C1330      C1389   1.481       .  S
C1331      H1333   1.081       .  S
Cu1334     N1337   2.052       .  S
Cu1335     N1345   2.077       .  S
Cu1336     N1338   2.082       .  S
Cu1336     N1344   2.082       .  S
N1337      C1341   1.344       .  A
N1337      N1338   1.322       .  A
N1338      C1339   1.341       .  A
C1339      C1340   1.388       .  A
C1339      H1342   1.081       .  S
C1340      C1341   1.380       .  A
C1340      C1404   1.479       .  S
C1341      H1343   1.082       .  S
N1344      C1348   1.347       .  A
N1344      N1345   1.321       .  A
N1345      C1346   1.347       .  A
C1346      C1347   1.385       .  A
C1346      H1349   1.082       .  S
C1347      C1348   1.386       .  A
C1347      C1911   1.478       .  S
C1348      H1350   1.082       .  S
N1351      C1355   1.344       .  A
N1351     Cu1359   2.088       .  S
N1351      N1352   1.321       .  A
N1352      C1353   1.342       .  A
N1352     Cu1358   2.054       .  S
C1353      C1354   1.386       .  A
C1353      H1356   1.081       .  S
C1354      C1355   1.393       .  A
C1354      C1411   1.523       .  S
C1355      H1357   1.080       .  S
Cu1358     N1361   2.058       .  S
Cu1359     N1369   2.089       .  S
Cu1360     N1362   2.072       .  S
Cu1360     N1368   2.073       .  S
N1361      C1365   1.346       .  A
N1361      N1362   1.321       .  A
N1362      C1363   1.340       .  A
C1363      C1364   1.387       .  A
C1363      H1366   1.081       .  S
C1364      C1365   1.382       .  A
C1364      C1380   1.481       .  S
C1365      H1367   1.081       .  S
N1368      C1372   1.346       .  A
N1368      N1369   1.322       .  A
N1369      C1370   1.348       .  A
C1370      C1371   1.387       .  A
C1370      H1373   1.082       .  S
C1371      C1372   1.384       .  A
C1371      C1887   1.478   1_545  S
C1372      H1374   1.082       .  S
C1375      C1376   1.522       .  S
C1375      C1381   1.544       .  S
C1375      C1379   1.530       .  S
C1376      H1383   1.086       .  S
C1376      C1377   1.366       .  D
C1377      C1378   1.555       .  S
C1378      C1382   1.561       .  S
C1378      C1380   1.545       .  S
C1378      H1384   1.107       .  S
C1379      H1385   1.081       .  S
C1379      C1380   1.363       .  D
C1381      H1386   1.081       .  S
C1381      C1382   1.371       .  D
C1382      C1434   1.518       .  S
C1387      C1388   1.530       .  S
C1387      C1393   1.542       .  S
C1387      C1391   1.528       .  S
C1388      H1395   1.080       .  S
C1388      C1389   1.361       .  D
C1389      C1390   1.540       .  S
C1390      C1394   1.557       .  S
C1390      C1392   1.548       .  S
C1390      H1396   1.106       .  S
C1391      H1397   1.085       .  S
C1391      C1392   1.366       .  D
C1393      H1398   1.085       .  S
C1393      C1394   1.372       .  D
C1394      C1427   1.502       .  S
C1399      C1400   1.521       .  S
C1399      C1405   1.543       .  S
C1399      C1403   1.527       .  S
C1400      H1407   1.086       .  S
C1400      C1401   1.359       .  D
C1401      C1402   1.550       .  S
C1402      C1406   1.562       .  S
C1402      C1404   1.544       .  S
C1402      H1408   1.104       .  S
C1403      H1409   1.081       .  S
C1403      C1404   1.362       .  D
C1405      H1410   1.081       .  S
C1405      C1406   1.381       .  D
C1406      C1436   1.528       .  S
C1411      C1412   1.532       .  S
C1411      C1417   1.544       .  S
C1411      C1415   1.528       .  S
C1412      H1419   1.082       .  S
C1412      C1413   1.362       .  D
C1413      C1414   1.540       .  S
C1414      C1418   1.555       .  S
C1414      C1416   1.547       .  S
C1414      H1420   1.107       .  S
C1415      H1421   1.081       .  S
C1415      C1416   1.368       .  D
C1416      C1425   1.490       .  S
C1417      H1422   1.082       .  S
C1417      C1418   1.369       .  D
C1423      C1424   1.430   1_455  A
C1423      C1428   1.426   1_455  A
C1424      C1425   1.416       .  A
C1424      H1429   1.079       .  S
C1425      C1426   1.392       .  A
C1426      C1427   1.393       .  A
C1426      H1430   1.081       .  S
C1427      C1428   1.415       .  A
C1428      H1431   1.077       .  S
C1432      C1433   1.417       .  A
C1432      C1437   1.421       .  A
C1433      C1434   1.422       .  A
C1433      H1438   1.075       .  S
C1434      C1435   1.408       .  A
C1435      C1436   1.413       .  A
C1435      H1439   1.074       .  S
C1436      C1437   1.421       .  A
C1437      H1440   1.071       .  S
C1441      C1442   1.429   1_554  A
C1442      C1443   1.412       .  A
C1442      H1447   1.078       .  S
C1443      C1572   1.492       .  S
C1444      C1445   1.397       .  A
C1444      H1448   1.082       .  S
C1445      C1446   1.418       .  A
C1445      C1598   1.505       .  S
C1446      H1449   1.074       .  S
C1450      C1451   1.436       .  A
C1451      C1452   1.415       .  A
C1451      H1456   1.078       .  S
C1452      C1453   1.385       .  A
C1452      C1557   1.486       .  S
C1453      H1457   1.086       .  S
C1454      C1455   1.410       .  A
C1454      C1581   1.474       .  S
C1455      H1458   1.078       .  S
N1459      C1463   1.340       .  A
N1459     Cu1467   2.069       .  S
N1460      C1461   1.345       .  A
N1460     Cu1466   2.057       .  S
C1461      C1462   1.383       .  A
C1461      H1464   1.082       .  S
C1462      C1579   1.511   1_554  S
C1463      H1465   1.080       .  S
Cu1467     N1477   2.069       .  S
Cu1468     N1470   2.076       .  S
N1469      C1473   1.346       .  A
N1470      C1471   1.340       .  A
C1471      H1474   1.080       .  S
C1472      C1473   1.385       .  A
C1472      C1567   1.517   1_554  S
C1473      H1475   1.082       .  S
N1476      N1477   1.320       .  A
N1477      C1478   1.346       .  A
C1478      C1479   1.384       .  A
C1478      H1481   1.082       .  S
C1479      C1863   1.473       .  S
C1480      H1482   1.082       .  S
N1483      C1487   1.343       .  A
N1483      N1484   1.320       .  A
N1484      C1485   1.342       .  A
N1484     Cu1490   2.051       .  S
C1485      C1486   1.386       .  A
C1485      H1488   1.081       .  S
C1486      C1487   1.392       .  A
C1486      C1555   1.521       .  S
C1487      H1489   1.081       .  S
Cu1491     N1501   2.082       .  S
N1493      C1497   1.344       .  A
N1493      N1494   1.320       .  A
N1494      C1495   1.341       .  A
C1495      C1496   1.386       .  A
C1495      H1498   1.081       .  S
C1496      C1497   1.380       .  A
C1496      C1593   1.477       .  S
C1497      H1499   1.082       .  S
N1500      N1501   1.322       .  A
N1501      C1502   1.347       .  A
C1502      C1503   1.385       .  A
C1502      H1505   1.082       .  S
C1503      C1659   1.473   1_545  S
C1504      H1506   1.082       .  S
N1507      C1511   1.339       .  A
N1507     Cu1515   2.075       .  S
N1507      N1508   1.322       .  A
N1508      C1509   1.346       .  A
N1508     Cu1514   2.053       .  S
C1509      C1510   1.381       .  A
C1509      H1512   1.082       .  S
C1510      C1511   1.386       .  A
C1510      C1569   1.481       .  S
C1511      H1513   1.081       .  S
Cu1514     N1517   2.052       .  S
Cu1515     N1525   2.077       .  S
Cu1516     N1518   2.082       .  S
Cu1516     N1524   2.082       .  S
N1517      C1521   1.344       .  A
N1517      N1518   1.322       .  A
N1518      C1519   1.341       .  A
C1519      C1520   1.388       .  A
C1519      H1522   1.081       .  S
C1520      C1521   1.380       .  A
C1520      C1584   1.479       .  S
C1521      H1523   1.082       .  S
N1524      C1528   1.347       .  A
N1524      N1525   1.321       .  A
N1525      C1526   1.347       .  A
C1526      C1527   1.385       .  A
C1526      H1529   1.082       .  S
C1527      C1528   1.386       .  A
C1527      C2091   1.478       .  S
C1528      H1530   1.082       .  S
N1531      C1535   1.344       .  A
N1531     Cu1539   2.088       .  S
N1531      N1532   1.321       .  A
N1532      C1533   1.342       .  A
N1532     Cu1538   2.054       .  S
C1533      C1534   1.386       .  A
C1533      H1536   1.081       .  S
C1534      C1535   1.393       .  A
C1534      C1591   1.523       .  S
C1535      H1537   1.080       .  S
Cu1538     N1541   2.058       .  S
Cu1539     N1549   2.089       .  S
Cu1540     N1542   2.072       .  S
Cu1540     N1548   2.073       .  S
N1541      C1545   1.346       .  A
N1541      N1542   1.321       .  A
N1542      C1543   1.340       .  A
C1543      C1544   1.387       .  A
C1543      H1546   1.081       .  S
C1544      C1545   1.382       .  A
C1544      C1560   1.481       .  S
C1545      H1547   1.081       .  S
N1548      C1552   1.346       .  A
N1548      N1549   1.322       .  A
N1549      C1550   1.348       .  A
C1550      C1551   1.387       .  A
C1550      H1553   1.082       .  S
C1551      C1552   1.384       .  A
C1551      C2067   1.478   1_545  S
C1552      H1554   1.082       .  S
C1555      C1556   1.522       .  S
C1555      C1561   1.544       .  S
C1555      C1559   1.530       .  S
C1556      H1563   1.086       .  S
C1556      C1557   1.366       .  D
C1557      C1558   1.555       .  S
C1558      C1562   1.561       .  S
C1558      C1560   1.545       .  S
C1558      H1564   1.107       .  S
C1559      H1565   1.081       .  S
C1559      C1560   1.363       .  D
C1561      H1566   1.081       .  S
C1561      C1562   1.371       .  D
C1562      C1614   1.518       .  S
C1567      C1568   1.530       .  S
C1567      C1573   1.542       .  S
C1567      C1571   1.528   1_556  S
C1568      H1575   1.080       .  S
C1568      C1569   1.361       .  D
C1569      C1570   1.540       .  S
C1570      C1574   1.557       .  S
C1570      C1572   1.548       .  S
C1570      H1576   1.106       .  S
C1571      H1577   1.085       .  S
C1571      C1572   1.366   1_554  D
C1573      H1578   1.085       .  S
C1573      C1574   1.372       .  D
C1574      C1607   1.502       .  S
C1579      C1580   1.521       .  S
C1579      C1585   1.543       .  S
C1579      C1583   1.527       .  S
C1580      H1587   1.086   1_556  S
C1580      C1581   1.359       .  D
C1581      C1582   1.550       .  S
C1582      C1586   1.562       .  S
C1582      C1584   1.544       .  S
C1582      H1588   1.104       .  S
C1583      H1589   1.081       .  S
C1583      C1584   1.362       .  D
C1585      H1590   1.081       .  S
C1585      C1586   1.381       .  D
C1586      C1616   1.528       .  S
C1591      C1592   1.532       .  S
C1591      C1597   1.544       .  S
C1591      C1595   1.528       .  S
C1592      H1599   1.082       .  S
C1592      C1593   1.362       .  D
C1593      C1594   1.540       .  S
C1594      C1598   1.555       .  S
C1594      C1596   1.547       .  S
C1594      H1600   1.107       .  S
C1595      H1601   1.081       .  S
C1595      C1596   1.368       .  D
C1596      C1605   1.490       .  S
C1597      H1602   1.082       .  S
C1597      C1598   1.369       .  D
C1603      C1604   1.430   1_455  A
C1603      C1608   1.426   1_455  A
C1604      C1605   1.416       .  A
C1604      H1609   1.079       .  S
C1605      C1606   1.392       .  A
C1606      C1607   1.393       .  A
C1606      H1610   1.081       .  S
C1607      C1608   1.415       .  A
C1608      H1611   1.077       .  S
C1612      C1613   1.417       .  A
C1612      C1617   1.421       .  A
C1613      C1614   1.422       .  A
C1613      H1618   1.075       .  S
C1614      C1615   1.408       .  A
C1615      C1616   1.413       .  A
C1615      H1619   1.074       .  S
C1616      C1617   1.421       .  A
C1617      H1620   1.071       .  S
C1621      C1622   1.429       .  A
C1621      C1806   1.424       .  A
C1621      C1810   1.539       .  S
C1622      C1623   1.412       .  A
C1622      H1627   1.078       .  S
C1623      C1804   1.397       .  A
C1623      C1752   1.492       .  S
C1624      C1983   1.397   1_554  A
C1624      C1625   1.397       .  A
C1624      H1628   1.082       .  S
C1625      C1626   1.418       .  A
C1625      C1778   1.505       .  S
C1626      C1981   1.424       .  A
C1626      H1629   1.074       .  S
C1630      C1631   1.436   1_556  A
C1630      C1995   1.427       .  A
C1630      C1981   1.539   1_556  S
C1631      C1632   1.415       .  A
C1631      H1636   1.078       .  S
C1632      C1633   1.385   1_554  A
C1632      C1737   1.486       .  S
C1633      C1994   1.383       .  A
C1633      H1637   1.086       .  S
C1634      C1813   1.383       .  A
C1634      C1635   1.410       .  A
C1634      C1761   1.474       .  S
C1635      C1810   1.427       .  A
C1635      H1638   1.078       .  S
N1639      C1643   1.340       .  A
N1639     Cu1647   2.069       .  S
N1639      N2000   1.322       .  A
N1640      C1641   1.345       .  A
N1640     Cu1646   2.057       .  S
N1640      N1819   1.322       .  A
C1641      C1642   1.383       .  A
C1641      H1644   1.082       .  S
C1642      C1823   1.386       .  A
C1642      C1759   1.511       .  S
C1643      C2002   1.386       .  A
C1643      H1645   1.080   1_554  S
Cu1647     N1657   2.069       .  S
Cu1648     N1650   2.076       .  S
N1649      C1653   1.346       .  A
N1649      N1830   1.322       .  A
N1650      C1651   1.340       .  A
N1650      N2009   1.322       .  A
C1651      C2012   1.389       .  A
C1651      H1654   1.080       .  S
C1652      C1831   1.389       .  A
C1652      C1653   1.385       .  A
C1652      C1747   1.517       .  S
C1653      H1655   1.082       .  S
N1656      N1657   1.320       .  A
N1657      C1658   1.346       .  A
C1658      C1659   1.384   1_554  A
C1658      H1661   1.082   1_554  S
C1660      H1662   1.082       .  S
N1663      C1667   1.343       .  A
N1663     Cu2031   2.082       .  S
N1663      N1664   1.320       .  A
N1664      C1665   1.342       .  A
N1664     Cu1670   2.051       .  S
C1665      C1666   1.386       .  A
C1665      H1668   1.081       .  S
C1666      C1667   1.392       .  A
C1666      C1735   1.521   1_556  S
C1667      H1669   1.081       .  S
Cu1671     N1843   2.082       .  S
Cu1671     N1681   2.082       .  S
Cu1672     N1854   2.064       .  S
N1673      C1677   1.344       .  A
N1673      N1674   1.320       .  A
N1674      C1675   1.341       .  A
N1674     Cu2032   2.064       .  S
C1675      C1676   1.386   1_556  A
C1675      H1678   1.081   1_556  S
C1676      C1677   1.380   1_554  A
C1676      C1773   1.477       .  S
C1677      H1679   1.082       .  S
N1680      N1681   1.322       .  A
N1681      C1682   1.347       .  A
C1682      C1683   1.385       .  A
C1682      H1685   1.082       .  S
C1684      H1686   1.082       .  S
N1687      C1691   1.339       .  A
N1687     Cu1695   2.075       .  S
N1687      N1688   1.322       .  A
N1688      C1689   1.346       .  A
N1688     Cu1694   2.053       .  S
C1689      C1690   1.381       .  A
C1689      H1692   1.082       .  S
C1690      C1691   1.386       .  A
C1690      C1749   1.481       .  S
C1691      H1693   1.081       .  S
Cu1694     N1697   2.052       .  S
Cu1695     N1705   2.077       .  S
Cu1696     N1698   2.082       .  S
Cu1696     N1704   2.082       .  S
N1697      C1701   1.344       .  A
N1697      N1698   1.322       .  A
N1698      C1699   1.341       .  A
C1699      C1700   1.388       .  A
C1699      H1702   1.081       .  S
C1700      C1701   1.380       .  A
C1700      C1764   1.479       .  S
C1701      H1703   1.082       .  S
N1704      C1708   1.347       .  A
N1704      N1705   1.321       .  A
N1705      C1706   1.347       .  A
C1706      C1707   1.385       .  A
C1706      H1709   1.082       .  S
C1707      C1708   1.386       .  A
C1708      H1710   1.082       .  S
N1711      C1715   1.344       .  A
N1711     Cu1719   2.088       .  S
N1711      N1712   1.321       .  A
N1712      C1713   1.342       .  A
N1712     Cu1718   2.054       .  S
C1713      C1714   1.386       .  A
C1713      H1716   1.081       .  S
C1714      C1715   1.393       .  A
C1714      C1771   1.523       .  S
C1715      H1717   1.080       .  S
Cu1718     N1721   2.058       .  S
Cu1719     N1729   2.089       .  S
Cu1720     N1722   2.072       .  S
Cu1720     N1728   2.073       .  S
N1721      C1725   1.346       .  A
N1721      N1722   1.321       .  A
N1722      C1723   1.340       .  A
C1723      C1724   1.387       .  A
C1723      H1726   1.081       .  S
C1724      C1725   1.382       .  A
C1724      C1740   1.481       .  S
C1725      H1727   1.081       .  S
N1728      C1732   1.346       .  A
N1728      N1729   1.322       .  A
N1729      C1730   1.348       .  A
C1730      C1731   1.387       .  A
C1730      H1733   1.082       .  S
C1731      C1732   1.384       .  A
C1732      H1734   1.082       .  S
C1735      C1736   1.522   1_554  S
C1735      C1741   1.544       .  S
C1735      C1739   1.530       .  S
C1736      H1743   1.086       .  S
C1736      C1737   1.366   1_556  D
C1737      C1738   1.555       .  S
C1738      C1742   1.561       .  S
C1738      C1740   1.545       .  S
C1738      H1744   1.107       .  S
C1739      H1745   1.081       .  S
C1739      C1740   1.363       .  D
C1741      H1746   1.081       .  S
C1741      C1742   1.371       .  D
C1742      C1794   1.518       .  S
C1747      C1748   1.530       .  S
C1747      C1753   1.542       .  S
C1747      C1751   1.528       .  S
C1748      H1755   1.080       .  S
C1748      C1749   1.361       .  D
C1749      C1750   1.540       .  S
C1750      C1754   1.557       .  S
C1750      C1752   1.548       .  S
C1750      H1756   1.106       .  S
C1751      H1757   1.085       .  S
C1751      C1752   1.366       .  D
C1753      H1758   1.085       .  S
C1753      C1754   1.372       .  D
C1754      C1787   1.502       .  S
C1759      C1760   1.521       .  S
C1759      C1765   1.543       .  S
C1759      C1763   1.527       .  S
C1760      H1767   1.086       .  S
C1760      C1761   1.359       .  D
C1761      C1762   1.550       .  S
C1762      C1766   1.562       .  S
C1762      C1764   1.544       .  S
C1762      H1768   1.104       .  S
C1763      H1769   1.081       .  S
C1763      C1764   1.362       .  D
C1765      H1770   1.081       .  S
C1765      C1766   1.381       .  D
C1766      C1796   1.528       .  S
C1771      C1772   1.532       .  S
C1771      C1777   1.544       .  S
C1771      C1775   1.528       .  S
C1772      H1779   1.082       .  S
C1772      C1773   1.362       .  D
C1773      C1774   1.540       .  S
C1774      C1778   1.555       .  S
C1774      C1776   1.547       .  S
C1774      H1780   1.107       .  S
C1775      H1781   1.081       .  S
C1775      C1776   1.368       .  D
C1776      C1785   1.490       .  S
C1777      H1782   1.082       .  S
C1777      C1778   1.369       .  D
C1783      C1784   1.430   1_455  A
C1783      C1788   1.426   1_455  A
C1784      C1785   1.416       .  A
C1784      H1789   1.079       .  S
C1785      C1786   1.392       .  A
C1786      C1787   1.393       .  A
C1786      H1790   1.081       .  S
C1787      C1788   1.415       .  A
C1788      H1791   1.077       .  S
C1792      C1793   1.417       .  A
C1792      C1797   1.421       .  A
C1793      C1794   1.422       .  A
C1793      H1798   1.075       .  S
C1794      C1795   1.408       .  A
C1795      C1796   1.413       .  A
C1795      H1799   1.074       .  S
C1796      C1797   1.421       .  A
C1797      H1800   1.071       .  S
C1801      C1802   1.429       .  A
C1801      C1986   1.424       .  A
C1801      C1990   1.539       .  S
C1802      C1803   1.412       .  A
C1802      H1807   1.078       .  S
C1803      C1984   1.397       .  A
C1803      C1932   1.492       .  S
C1804      C1805   1.397       .  A
C1804      H1808   1.082       .  S
C1805      C1806   1.418       .  A
C1805      C1958   1.505       .  S
C1806      H1809   1.074       .  S
C1810      C1811   1.436       .  A
C1811      C1812   1.415       .  A
C1811      H1816   1.078       .  S
C1812      C1813   1.385       .  A
C1812      C1917   1.486       .  S
C1813      H1817   1.086       .  S
C1814      C1993   1.383       .  A
C1814      C1815   1.410       .  A
C1814      C1941   1.474       .  S
C1815      C1990   1.427       .  A
C1815      H1818   1.078       .  S
N1819      C1823   1.340       .  A
N1819     Cu1827   2.069       .  S
N1820      C1821   1.345       .  A
N1820     Cu1826   2.057       .  S
N1820      N1999   1.322       .  A
C1821      C1822   1.383       .  A
C1821      H1824   1.082       .  S
C1822      C2003   1.386       .  A
C1822      C1939   1.511       .  S
C1823      H1825   1.080       .  S
Cu1827     N1837   2.069       .  S
Cu1828     N1830   2.076       .  S
N1829      C1833   1.346       .  A
N1829      N2010   1.322       .  A
N1830      C1831   1.340       .  A
C1831      H1834   1.080       .  S
C1832      C2011   1.389       .  A
C1832      C1833   1.385       .  A
C1832      C1927   1.517       .  S
C1833      H1835   1.082       .  S
N1836      N1837   1.320       .  A
N1837      C1838   1.346       .  A
C1838      C1839   1.384       .  A
C1838      H1841   1.082       .  S
C1840      H1842   1.082       .  S
N1843      C1847   1.343       .  A
N1843      N1844   1.320       .  A
N1844      C1845   1.342       .  A
N1844     Cu1850   2.051       .  S
C1845      C1846   1.386       .  A
C1845      H1848   1.081       .  S
C1846      C1847   1.392       .  A
C1846      C1915   1.521       .  S
C1847      H1849   1.081       .  S
Cu1851     N2023   2.082       .  S
Cu1851     N1861   2.082       .  S
Cu1852     N2034   2.064       .  S
N1853      C1857   1.344       .  A
N1853      N1854   1.320       .  A
N1854      C1855   1.341       .  A
C1855      C1856   1.386       .  A
C1855      H1858   1.081       .  S
C1856      C1857   1.380       .  A
C1856      C1953   1.477       .  S
C1857      H1859   1.082       .  S
N1860      N1861   1.322       .  A
N1861      C1862   1.347       .  A
C1862      C1863   1.385       .  A
C1862      H1865   1.082       .  S
C1864      H1866   1.082       .  S
N1867      C1871   1.339       .  A
N1867     Cu1875   2.075       .  S
N1867      N1868   1.322       .  A
N1868      C1869   1.346       .  A
N1868     Cu1874   2.053       .  S
C1869      C1870   1.381       .  A
C1869      H1872   1.082       .  S
C1870      C1871   1.386       .  A
C1870      C1929   1.481       .  S
C1871      H1873   1.081       .  S
Cu1874     N1877   2.052       .  S
Cu1875     N1885   2.077       .  S
Cu1876     N1878   2.082       .  S
Cu1876     N1884   2.082       .  S
N1877      C1881   1.344       .  A
N1877      N1878   1.322       .  A
N1878      C1879   1.341       .  A
C1879      C1880   1.388       .  A
C1879      H1882   1.081       .  S
C1880      C1881   1.380       .  A
C1880      C1944   1.479       .  S
C1881      H1883   1.082       .  S
N1884      C1888   1.347       .  A
N1884      N1885   1.321       .  A
N1885      C1886   1.347       .  A
C1886      C1887   1.385       .  A
C1886      H1889   1.082       .  S
C1887      C1888   1.386       .  A
C1888      H1890   1.082       .  S
N1891      C1895   1.344       .  A
N1891     Cu1899   2.088       .  S
N1891      N1892   1.321       .  A
N1892      C1893   1.342       .  A
N1892     Cu1898   2.054       .  S
C1893      C1894   1.386       .  A
C1893      H1896   1.081       .  S
C1894      C1895   1.393       .  A
C1894      C1951   1.523       .  S
C1895      H1897   1.080       .  S
Cu1898     N1901   2.058       .  S
Cu1899     N1909   2.089       .  S
Cu1900     N1902   2.072       .  S
Cu1900     N1908   2.073       .  S
N1901      C1905   1.346       .  A
N1901      N1902   1.321       .  A
N1902      C1903   1.340       .  A
C1903      C1904   1.387       .  A
C1903      H1906   1.081       .  S
C1904      C1905   1.382       .  A
C1904      C1920   1.481       .  S
C1905      H1907   1.081       .  S
N1908      C1912   1.346       .  A
N1908      N1909   1.322       .  A
N1909      C1910   1.348       .  A
C1910      C1911   1.387       .  A
C1910      H1913   1.082       .  S
C1911      C1912   1.384       .  A
C1912      H1914   1.082       .  S
C1915      C1916   1.522       .  S
C1915      C1921   1.544       .  S
C1915      C1919   1.530       .  S
C1916      H1923   1.086       .  S
C1916      C1917   1.366       .  D
C1917      C1918   1.555       .  S
C1918      C1922   1.561       .  S
C1918      C1920   1.545       .  S
C1918      H1924   1.107       .  S
C1919      H1925   1.081       .  S
C1919      C1920   1.363       .  D
C1921      H1926   1.081       .  S
C1921      C1922   1.371       .  D
C1922      C1974   1.518       .  S
C1927      C1928   1.530       .  S
C1927      C1933   1.542       .  S
C1927      C1931   1.528       .  S
C1928      H1935   1.080       .  S
C1928      C1929   1.361       .  D
C1929      C1930   1.540       .  S
C1930      C1934   1.557       .  S
C1930      C1932   1.548       .  S
C1930      H1936   1.106       .  S
C1931      H1937   1.085       .  S
C1931      C1932   1.366       .  D
C1933      H1938   1.085       .  S
C1933      C1934   1.372       .  D
C1934      C1967   1.502       .  S
C1939      C1940   1.521       .  S
C1939      C1945   1.543       .  S
C1939      C1943   1.527       .  S
C1940      H1947   1.086       .  S
C1940      C1941   1.359       .  D
C1941      C1942   1.550       .  S
C1942      C1946   1.562       .  S
C1942      C1944   1.544       .  S
C1942      H1948   1.104       .  S
C1943      H1949   1.081       .  S
C1943      C1944   1.362       .  D
C1945      H1950   1.081       .  S
C1945      C1946   1.381       .  D
C1946      C1976   1.528       .  S
C1951      C1952   1.532       .  S
C1951      C1957   1.544       .  S
C1951      C1955   1.528       .  S
C1952      H1959   1.082       .  S
C1952      C1953   1.362       .  D
C1953      C1954   1.540       .  S
C1954      C1958   1.555       .  S
C1954      C1956   1.547       .  S
C1954      H1960   1.107       .  S
C1955      H1961   1.081       .  S
C1955      C1956   1.368       .  D
C1956      C1965   1.490       .  S
C1957      H1962   1.082       .  S
C1957      C1958   1.369       .  D
C1963      C1964   1.430   1_455  A
C1963      C1968   1.426   1_455  A
C1964      C1965   1.416       .  A
C1964      H1969   1.079       .  S
C1965      C1966   1.392       .  A
C1966      C1967   1.393       .  A
C1966      H1970   1.081       .  S
C1967      C1968   1.415       .  A
C1968      H1971   1.077       .  S
C1972      C1973   1.417       .  A
C1972      C1977   1.421       .  A
C1973      C1974   1.422       .  A
C1973      H1978   1.075       .  S
C1974      C1975   1.408       .  A
C1975      C1976   1.413       .  A
C1975      H1979   1.074       .  S
C1976      C1977   1.421       .  A
C1977      H1980   1.071       .  S
C1981      C1982   1.429   1_554  A
C1982      C1983   1.412       .  A
C1982      H1987   1.078       .  S
C1983      C2112   1.492       .  S
C1984      C1985   1.397       .  A
C1984      H1988   1.082       .  S
C1985      C1986   1.418       .  A
C1985      C2138   1.505       .  S
C1986      H1989   1.074       .  S
C1990      C1991   1.436       .  A
C1991      C1992   1.415       .  A
C1991      H1996   1.078       .  S
C1992      C1993   1.385       .  A
C1992      C2097   1.486       .  S
C1993      H1997   1.086       .  S
C1994      C1995   1.410       .  A
C1994      C2121   1.474       .  S
C1995      H1998   1.078       .  S
N1999      C2003   1.340       .  A
N1999     Cu2007   2.069       .  S
N2000      C2001   1.345       .  A
N2000     Cu2006   2.057       .  S
C2001      C2002   1.383       .  A
C2001      H2004   1.082       .  S
C2002      C2119   1.511   1_554  S
C2003      H2005   1.080       .  S
Cu2007     N2017   2.069       .  S
Cu2008     N2010   2.076       .  S
N2009      C2013   1.346       .  A
N2010      C2011   1.340       .  A
C2011      H2014   1.080       .  S
C2012      C2013   1.385       .  A
C2012      C2107   1.517   1_554  S
C2013      H2015   1.082       .  S
N2016      N2017   1.320       .  A
N2017      C2018   1.346       .  A
C2018      C2019   1.384       .  A
C2018      H2021   1.082       .  S
C2020      H2022   1.082       .  S
N2023      C2027   1.343       .  A
N2023      N2024   1.320       .  A
N2024      C2025   1.342       .  A
N2024     Cu2030   2.051       .  S
C2025      C2026   1.386       .  A
C2025      H2028   1.081       .  S
C2026      C2027   1.392       .  A
C2026      C2095   1.521       .  S
C2027      H2029   1.081       .  S
Cu2031     N2041   2.082       .  S
N2033      C2037   1.344       .  A
N2033      N2034   1.320       .  A
N2034      C2035   1.341       .  A
C2035      C2036   1.386       .  A
C2035      H2038   1.081       .  S
C2036      C2037   1.380       .  A
C2036      C2133   1.477       .  S
C2037      H2039   1.082       .  S
N2040      N2041   1.322       .  A
N2041      C2042   1.347       .  A
C2042      C2043   1.385       .  A
C2042      H2045   1.082       .  S
C2044      H2046   1.082       .  S
N2047      C2051   1.339       .  A
N2047     Cu2055   2.075       .  S
N2047      N2048   1.322       .  A
N2048      C2049   1.346       .  A
N2048     Cu2054   2.053       .  S
C2049      C2050   1.381       .  A
C2049      H2052   1.082       .  S
C2050      C2051   1.386       .  A
C2050      C2109   1.481       .  S
C2051      H2053   1.081       .  S
Cu2054     N2057   2.052       .  S
Cu2055     N2065   2.077       .  S
Cu2056     N2058   2.082       .  S
Cu2056     N2064   2.082       .  S
N2057      C2061   1.344       .  A
N2057      N2058   1.322       .  A
N2058      C2059   1.341       .  A
C2059      C2060   1.388       .  A
C2059      H2062   1.081       .  S
C2060      C2061   1.380       .  A
C2060      C2124   1.479       .  S
C2061      H2063   1.082       .  S
N2064      C2068   1.347       .  A
N2064      N2065   1.321       .  A
N2065      C2066   1.347       .  A
C2066      C2067   1.385       .  A
C2066      H2069   1.082       .  S
C2067      C2068   1.386       .  A
C2068      H2070   1.082       .  S
N2071      C2075   1.344       .  A
N2071     Cu2079   2.088       .  S
N2071      N2072   1.321       .  A
N2072      C2073   1.342       .  A
N2072     Cu2078   2.054       .  S
C2073      C2074   1.386       .  A
C2073      H2076   1.081       .  S
C2074      C2075   1.393       .  A
C2074      C2131   1.523       .  S
C2075      H2077   1.080       .  S
Cu2078     N2081   2.058       .  S
Cu2079     N2089   2.089       .  S
Cu2080     N2082   2.072       .  S
Cu2080     N2088   2.073       .  S
N2081      C2085   1.346       .  A
N2081      N2082   1.321       .  A
N2082      C2083   1.340       .  A
C2083      C2084   1.387       .  A
C2083      H2086   1.081       .  S
C2084      C2085   1.382       .  A
C2084      C2100   1.481       .  S
C2085      H2087   1.081       .  S
N2088      C2092   1.346       .  A
N2088      N2089   1.322       .  A
N2089      C2090   1.348       .  A
C2090      C2091   1.387       .  A
C2090      H2093   1.082       .  S
C2091      C2092   1.384       .  A
C2092      H2094   1.082       .  S
C2095      C2096   1.522       .  S
C2095      C2101   1.544       .  S
C2095      C2099   1.530       .  S
C2096      H2103   1.086       .  S
C2096      C2097   1.366       .  D
C2097      C2098   1.555       .  S
C2098      C2102   1.561       .  S
C2098      C2100   1.545       .  S
C2098      H2104   1.107       .  S
C2099      H2105   1.081       .  S
C2099      C2100   1.363       .  D
C2101      H2106   1.081       .  S
C2101      C2102   1.371       .  D
C2102      C2154   1.518       .  S
C2107      C2108   1.530       .  S
C2107      C2113   1.542       .  S
C2107      C2111   1.528   1_556  S
C2108      H2115   1.080       .  S
C2108      C2109   1.361       .  D
C2109      C2110   1.540       .  S
C2110      C2114   1.557       .  S
C2110      C2112   1.548       .  S
C2110      H2116   1.106       .  S
C2111      H2117   1.085       .  S
C2111      C2112   1.366   1_554  D
C2113      H2118   1.085       .  S
C2113      C2114   1.372       .  D
C2114      C2147   1.502       .  S
C2119      C2120   1.521       .  S
C2119      C2125   1.543       .  S
C2119      C2123   1.527       .  S
C2120      H2127   1.086   1_556  S
C2120      C2121   1.359       .  D
C2121      C2122   1.550       .  S
C2122      C2126   1.562       .  S
C2122      C2124   1.544       .  S
C2122      H2128   1.104       .  S
C2123      H2129   1.081       .  S
C2123      C2124   1.362       .  D
C2125      H2130   1.081       .  S
C2125      C2126   1.381       .  D
C2126      C2156   1.528       .  S
C2131      C2132   1.532       .  S
C2131      C2137   1.544       .  S
C2131      C2135   1.528       .  S
C2132      H2139   1.082       .  S
C2132      C2133   1.362       .  D
C2133      C2134   1.540       .  S
C2134      C2138   1.555       .  S
C2134      C2136   1.547       .  S
C2134      H2140   1.107       .  S
C2135      H2141   1.081       .  S
C2135      C2136   1.368       .  D
C2136      C2145   1.490       .  S
C2137      H2142   1.082       .  S
C2137      C2138   1.369       .  D
C2143      C2144   1.430   1_455  A
C2143      C2148   1.426   1_455  A
C2144      C2145   1.416       .  A
C2144      H2149   1.079       .  S
C2145      C2146   1.392       .  A
C2146      C2147   1.393       .  A
C2146      H2150   1.081       .  S
C2147      C2148   1.415       .  A
C2148      H2151   1.077       .  S
C2152      C2153   1.417       .  A
C2152      C2157   1.421       .  A
C2153      C2154   1.422       .  A
C2153      H2158   1.075       .  S
C2154      C2155   1.408       .  A
C2155      C2156   1.413       .  A
C2155      H2159   1.074       .  S
C2156      C2157   1.421       .  A
C2157      H2160   1.071       .  S
