geometry optimzed in LAMMPS
_audit_creation_date              2020-11-30 
_audit_creation_method            'lammps2cif' 
_symmetry_space_group_name_H-M    'P1' 
_symmetry_Int_Tables_number       1 
_symmetry_cell_setting            triclinic 
loop_ 
_symmetry_equiv_pos_as_xyz 
  x,y,z 
_cell_length_a                    51.57514114704089 
_cell_length_b                    50.978077608021955 
_cell_length_c                    50.92984490622264 
_cell_angle_alpha                 89.98259573281463 
_cell_angle_beta                  90.13794870194836 
_cell_angle_gamma                 89.89355536726161 
loop_ 
_atom_site_label 
_atom_site_type_symbol 
_atom_site_fract_x 
_atom_site_fract_y 
_atom_site_fract_z 
_atom_site_charge 
C1          C  0.65899229  0.70176240  0.92711421     0.03440
C2          C  0.67355442  0.71692808  0.90946893    -0.12710
C3          C  0.69867875  0.70893278  0.90212395     0.00940
C4          C  0.70978776  0.68657078  0.91402862    -0.11240
C5          C  0.69521890  0.67112726  0.93159223     0.03430
C6          C  0.66925694  0.67811998  0.93632142    -0.10660
H7          H  0.66576678  0.73532263  0.90222709     0.09020
H8          H  0.72991933  0.68192799  0.91024491     0.06550
H9          H  0.65771126  0.66653386  0.94976478     0.06400
C10         C  0.85973076  0.71111075  0.72306771     0.03440
C11         C  0.86686855  0.68559468  0.73088783    -0.12710
C12         C  0.88420559  0.67073052  0.71568781     0.00940
C13         C  0.89355169  0.68121635  0.69222184    -0.11240
C14         C  0.88854486  0.70736419  0.68519368     0.03430
C15         C  0.87113016  0.72220144  0.70048436    -0.10660
H16         H  0.85987117  0.67780606  0.74935808     0.09020
H17         H  0.90766998  0.67006154  0.68106595     0.06550
H18         H  0.86747431  0.74258322  0.69568636     0.06400
C19         C  0.69716791  0.92472724  0.71030621     0.03440
C20         C  0.71105288  0.90398880  0.72157790    -0.12710
C21         C  0.69865862  0.88680259  0.73902923     0.00940
C22         C  0.67203060  0.89005136  0.74437670    -0.11240
C23         C  0.65833600  0.91215698  0.73479061     0.03430
C24         C  0.67154562  0.92925273  0.71771724    -0.10660
H25         H  0.73132542  0.90117387  0.71675813     0.09020
H26         H  0.66251324  0.87547363  0.75628446     0.06550
H27         H  0.66220747  0.94677502  0.71023724     0.06400
C28         C  0.75576214  0.76860954  0.82381879     0.02590
C29         C  0.77823944  0.75799420  0.81200176     0.02590
C30         C  0.78948495  0.77028158  0.78990206     0.02590
C31         C  0.77978670  0.79473962  0.78129988     0.02590
C32         C  0.75670474  0.80489988  0.79230087     0.02590
C33         C  0.74543729  0.79255712  0.81436796     0.02590
C34         C  0.38580438  0.37244870  0.95052038     0.03440
C35         C  0.37159486  0.35863360  0.93162488    -0.12710
C36         C  0.34973773  0.37035191  0.91999537     0.00940
C37         C  0.34133498  0.39521181  0.92834506    -0.11240
C38         C  0.35521370  0.40851727  0.94784918     0.03430
C39         C  0.37831874  0.39781110  0.95738423    -0.10660
H40         H  0.37752764  0.33903027  0.92595235     0.09020
H41         H  0.32356944  0.40354501  0.92053530     0.06550
H42         H  0.38901506  0.40816903  0.97253909     0.06400
C43         C  0.86655488  0.36520919  0.40634149     0.03440
C44         C  0.88117659  0.38609933  0.39509367    -0.12710
C45         C  0.90274969  0.39712443  0.40852197     0.00940
C46         C  0.91064637  0.38534247  0.43202771    -0.11240
C47         C  0.89586828  0.36599830  0.44404791     0.03430
C48         C  0.87292154  0.35747500  0.43222408    -0.10660
H49         H  0.87632199  0.39324056  0.37571207     0.09020
H50         H  0.92914358  0.39047605  0.44074804     0.06550
H51         H  0.86110183  0.34368899  0.44288459     0.06400
C52         C  0.40015470  0.91727018  0.38492380     0.03440
C53         C  0.38499002  0.89729308  0.37410920    -0.12710
C54         C  0.36811424  0.88248927  0.39012576     0.00940
C55         C  0.36340670  0.89186370  0.41605567    -0.11240
C56         C  0.37646624  0.91407561  0.42569291     0.03430
C57         C  0.39699424  0.92417353  0.41112609    -0.10660
H58         H  0.38644474  0.89360688  0.35326811     0.09020
H59         H  0.34926379  0.88283794  0.42868639     0.06550
H60         H  0.40863771  0.93994095  0.41920741     0.06400
C61         C  0.85573989  0.91016434  0.43903385     0.03440
C62         C  0.87883071  0.90041925  0.44952724    -0.12710
C63         C  0.88799751  0.87568143  0.44243710     0.00940
C64         C  0.87476843  0.86111943  0.42326246    -0.11240
C65         C  0.85211027  0.87130754  0.41162492     0.03430
C66         C  0.84236274  0.89572429  0.41990408    -0.10660
H67         H  0.88834429  0.91104462  0.46529545     0.09020
H68         H  0.88153463  0.84166837  0.41807497     0.06550
H69         H  0.82402416  0.90289496  0.41230712     0.06400
C70         C  0.84305398  0.86391974  0.71813352     0.03440
C71         C  0.83149423  0.88812789  0.71269007    -0.12710
C72         C  0.84348988  0.90573007  0.69565886     0.00940
C73         C  0.86673509  0.89874361  0.68328920    -0.11240
C74         C  0.87970951  0.87518693  0.68946149     0.03430
C75         C  0.86752075  0.85795207  0.70751285    -0.10660
H76         H  0.81268297  0.89285715  0.72091837     0.09020
H77         H  0.87367820  0.91131830  0.66775439     0.06550
H78         H  0.87650397  0.83963521  0.71319631     0.06400
C79         C  0.88702133  0.42301070  0.88067443     0.03440
C80         C  0.87571151  0.43478916  0.90244432    -0.12710
C81         C  0.85334282  0.42428074  0.91355509     0.00940
C82         C  0.84146954  0.40229828  0.90203507    -0.11240
C83         C  0.85301981  0.38970085  0.88023384     0.03430
C84         C  0.87677252  0.39966217  0.87076302    -0.10660
H85         H  0.88374346  0.45288811  0.91014226     0.09020
H86         H  0.82318125  0.39542222  0.90982564     0.06550
H87         H  0.88727769  0.38988885  0.85526676     0.06400
C88         C  0.87818887  0.65446239  0.86993856     0.03440
C89         C  0.86285782  0.67283505  0.85657633    -0.12710
C90         C  0.84130608  0.68404286  0.86907138     0.00940
C91         C  0.83480280  0.67639231  0.89470680    -0.11240
C92         C  0.85008473  0.65780606  0.90785710     0.03430
C93         C  0.87208184  0.64751363  0.89566916    -0.10660
H94         H  0.86735959  0.67798710  0.83644729     0.09020
H95         H  0.81726387  0.68380206  0.90377245     0.06550
H96         H  0.88323784  0.63230298  0.90546246     0.06400
C97         C  0.18672861  0.86803578  0.45436857     0.03440
C98         C  0.19890527  0.85331263  0.43460611    -0.12710
C99         C  0.22415407  0.85974460  0.42637608     0.00940
C100        C  0.23754626  0.88021752  0.43905999    -0.11240
C101        C  0.22569690  0.89432342  0.45950732     0.03430
C102        C  0.19989511  0.88892487  0.46600402    -0.10660
H103        H  0.18902978  0.83657459  0.42613105     0.09020
H104        H  0.25751021  0.88427549  0.43387705     0.06550
H105        H  0.19057830  0.89983416  0.48165176     0.06400
C106        C  0.19036227  0.86074213  0.68321526     0.03440
C107        C  0.20232903  0.88335097  0.67369964    -0.12710
C108        C  0.22860681  0.88807906  0.67863503     0.00940
C109        C  0.24239300  0.87126183  0.69544654    -0.11240
C110        C  0.23022764  0.84910604  0.70615031     0.03430
C111        C  0.20427979  0.84365401  0.69968392    -0.10660
H112        H  0.19175024  0.89607737  0.66035938     0.09020
H113        H  0.26273660  0.87483445  0.69944076     0.06550
H114        H  0.19531585  0.82578934  0.70665631     0.06400
O115        O  0.98781585  0.74821479  0.61801976    -0.74980
O116        O  0.95643123  0.77221707  0.59790889    -0.53890
C117        C  0.96393689  0.75436645  0.61421546     0.78740
O118        O  0.07802891  0.84355486  0.62666892    -0.59590
O119        O  0.10544930  0.82520947  0.59708843    -0.52610
C120        C  0.10098374  0.83725582  0.61864910     0.70760
O121        O  0.99045314  0.84791878  0.62932421    -0.74140
O122        O  0.95900701  0.82766771  0.60501320    -0.54710
C123        C  0.96667462  0.84180321  0.62451780     0.76760
O124        O  0.07541897  0.74591424  0.61538747    -0.59290
O125        O  0.10481977  0.77129141  0.59363384    -0.52410
C126        C  0.09873906  0.75317797  0.60996949     0.73350
Zr127      Zr  0.03128248  0.75991086  0.60414149     2.54710
O128        O  0.03364825  0.75852340  0.65183558    -0.79850
O129        O  0.03050353  0.71232377  0.60013125    -0.93270
Zr130      Zr  0.03313180  0.83860563  0.61022507     2.64680
O131        O  0.03296313  0.84196491  0.65794367    -0.98230
O132        O  0.03551714  0.88615126  0.60648743    -0.80290
O133        O  0.00764339  0.79969837  0.60854960    -0.83640
O134        O  0.05631503  0.79846704  0.60697836    -2.18350
O135        O  0.07190411  0.75785149  0.50892887    -0.67030
O136        O  0.10335514  0.77527212  0.53525515    -0.51600
C137        C  0.09571765  0.76278808  0.51482533     0.71740
O138        O  0.98782478  0.84675177  0.51307201    -0.59940
O139        O  0.95682434  0.83065057  0.54027136    -0.51920
C140        C  0.96400832  0.84204929  0.51893681     0.73540
O141        O  0.07405225  0.85002602  0.51279370    -0.71340
O142        O  0.10368264  0.82831064  0.53776265    -0.50010
C143        C  0.09750454  0.84263433  0.51799700     0.74920
O144        O  0.98459921  0.76302091  0.51003420    -0.66670
O145        O  0.95478163  0.77958026  0.53870892    -0.53860
C146        C  0.96127068  0.76825313  0.51717115     0.73300
Zr147      Zr  0.02855886  0.76548895  0.52721019     2.77540
O148        O  0.02576890  0.75981753  0.47977015    -0.97420
O149        O  0.02612763  0.71799148  0.53145000    -0.78240
Zr150      Zr  0.03078471  0.84410903  0.53302593     2.70070
O151        O  0.02940011  0.86376787  0.48948704    -0.79480
O152        O  0.02951900  0.88982180  0.54670257    -0.98570
Zr153      Zr  0.98086978  0.80292912  0.57064121     2.21500
Zr154      Zr  0.07945478  0.80072105  0.56683941     2.11130
O155        O  0.05365624  0.80415176  0.52825953    -2.47250
O156        O  0.00537204  0.80540083  0.53114635    -0.79280
O157        O  0.05542713  0.76104731  0.56467323    -0.71470
O158        O  0.00587197  0.84257980  0.57246530    -2.32430
O159        O  0.00420004  0.76257430  0.56649635    -2.28640
O160        O  0.05767632  0.84178287  0.57080320    -0.73230
H161        H  0.06776624  0.79652902  0.62186337     0.78770
H162        H  0.99468458  0.85775513  0.57379471     0.79850
H163        H  0.06364829  0.80460081  0.51230536     0.82080
H164        H  0.99252978  0.74780697  0.56557364     0.79680
H165        H  0.01726173  0.89212753  0.60736389     0.42720
H166        H  0.04615067  0.89718426  0.54045016     0.41690
H167        H  0.03115076  0.84875669  0.47727222     0.41370
H168        H  0.03731884  0.77342814  0.47237013     0.39300
H169        H  0.04355621  0.71269000  0.53771222     0.42430
H170        H  0.01356076  0.70830476  0.59190020     0.37220
H171        H  0.02394771  0.77426200  0.65763509     0.43330
H172        H  0.04456832  0.82771716  0.66407045     0.39750
H173        H  0.03464490  0.74297917  0.47610234     0.44670
H174        H  0.02888613  0.70588820  0.61839285     0.43390
H175        H  0.04244441  0.85836775  0.66192952     0.43530
H176        H  0.01621460  0.89795259  0.53523789     0.43890
C177        C  0.36838386  0.69434533  0.89541452     0.03440
C178        C  0.35875013  0.67226974  0.90876352    -0.12710
C179        C  0.37390482  0.65954435  0.92790840     0.00940
C180        C  0.39959374  0.66742308  0.93140700    -0.11240
C181        C  0.40777562  0.69167022  0.92193325     0.03430
C182        C  0.39245871  0.70493254  0.90329261    -0.10660
H183        H  0.33905221  0.66589332  0.90511833     0.09020
H184        H  0.41187774  0.65693759  0.94516640     0.06550
H185        H  0.39852934  0.72395328  0.89609498     0.06400
C186        C  0.37797340  0.86539242  0.73469192     0.03440
C187        C  0.36886380  0.87744732  0.71152456    -0.12710
C188        C  0.38302153  0.89772234  0.69987969     0.00940
C189        C  0.40669440  0.90528531  0.71061888    -0.11240
C190        C  0.41578379  0.89455822  0.73417065     0.03430
C191        C  0.40176820  0.87372591  0.74571543    -0.10660
H192        H  0.35002221  0.87228856  0.70362134     0.09020
H193        H  0.41648468  0.92205050  0.70207482     0.06550
H194        H  0.40833147  0.86527627  0.76408099     0.06400
C195        C  0.27617001  0.75859552  0.78515115     0.02590
C196        C  0.28811577  0.78204030  0.77680769     0.02590
C197        C  0.31040437  0.79169147  0.79001131     0.02590
C198        C  0.31763758  0.78097132  0.81499259     0.02590
C199        C  0.30683471  0.75606807  0.82228958     0.02590
C200        C  0.28545427  0.74565295  0.80788380     0.02590
C201        C  0.19965687  0.70483943  0.72037569     0.03440
C202        C  0.19148457  0.71539358  0.69612953    -0.12710
C203        C  0.16892509  0.70589391  0.68360486     0.00940
C204        C  0.15595783  0.68458020  0.69493933    -0.11240
C205        C  0.16443083  0.67318699  0.71832335     0.03430
C206        C  0.18618433  0.68344966  0.73129116    -0.10660
H207        H  0.20215684  0.73161014  0.68776800     0.09020
H208        H  0.13808400  0.67742067  0.68631451     0.06550
H209        H  0.19191477  0.67562449  0.75022353     0.06400
O210        O  0.98328649  0.59572364  0.83146237    -0.74980
O211        O  0.95245579  0.56957575  0.81341608    -0.53890
C212        C  0.95956196  0.58950677  0.82714285     0.78740
O213        O  0.06722982  0.59765150  0.73786857    -0.59590
O214        O  0.09845940  0.57171221  0.75619727    -0.52610
C215        C  0.09108238  0.59222381  0.74363273     0.70760
O216        O  0.97972703  0.59765448  0.74246329    -0.74140
O217        O  0.94987600  0.56988462  0.76025361    -0.54710
C218        C  0.95629584  0.59103227  0.74824046     0.76760
O219        O  0.06979810  0.59577321  0.83086065    -0.59290
O220        O  0.09887325  0.56957711  0.80954540    -0.52410
C221        C  0.09296247  0.58892288  0.82451811     0.73350
Zr222      Zr  0.02631952  0.57868574  0.82288153     2.54710
O223        O  0.02694783  0.62612269  0.82807677    -0.79850
O224        O  0.02687417  0.57295492  0.87033549    -0.93270
Zr225      Zr  0.02354177  0.57866765  0.74397783     2.64680
O226        O  0.02073430  0.62423514  0.72968334    -0.98230
O227        O  0.02156607  0.56942080  0.69713878    -0.80290
O228        O  0.00054365  0.57880684  0.78429185    -0.83640
O229        O  0.04894694  0.57971135  0.78277850    -2.18350
O230        O  0.07170032  0.48404166  0.82949378    -0.67030
O231        O  0.09991460  0.50978489  0.80682315    -0.51600
C232        C  0.09472777  0.49024452  0.82188364     0.71740
O233        O  0.98089171  0.48089930  0.74375360    -0.59940
O234        O  0.95062108  0.50952730  0.75949925    -0.51920
C235        C  0.95726149  0.48784546  0.74868587     0.73540
O236        O  0.06926739  0.48382379  0.73774200    -0.71340
O237        O  0.09898948  0.51310063  0.75344115    -0.50010
C238        C  0.09278398  0.49158249  0.74220216     0.74920
O239        O  0.98497532  0.48466631  0.83337133    -0.66670
O240        O  0.95326747  0.50864822  0.81356089    -0.53860
C241        C  0.96105649  0.48979022  0.82844399     0.73300
Zr242      Zr  0.02766217  0.50148678  0.82308541     2.77540
O243        O  0.02374816  0.45455664  0.83054155    -0.97420
O244        O  0.03072253  0.50867474  0.87023805    -0.78240
Zr245      Zr  0.02452590  0.50105262  0.74410256     2.70070
O246        O  0.02526271  0.45558593  0.72953854    -0.79480
O247        O  0.02092310  0.51015088  0.69732867    -0.98570
Zr248      Zr  0.97601897  0.53945155  0.78542391     2.21500
Zr249      Zr  0.07415304  0.54063796  0.78183668     2.11130
O250        O  0.05010794  0.50078943  0.78279863    -2.47250
O251        O  0.00170856  0.50067490  0.78453678    -0.79280
O252        O  0.05268106  0.54046159  0.82311048    -0.71470
O253        O  0.99826432  0.53958997  0.74417325    -2.32430
O254        O  0.00131791  0.53971614  0.82471730    -2.28640
O255        O  0.04959823  0.54018481  0.74205029    -0.73230
H256        H  0.05931587  0.59541331  0.78330697     0.78770
H257        H  0.98611526  0.53944444  0.72969585     0.79850
H258        H  0.06084984  0.48530380  0.78291437     0.82080
H259        H  0.99042651  0.53959776  0.84012343     0.79680
H260        H  0.00369147  0.57434433  0.69195753     0.42720
H261        H  0.03829047  0.50591789  0.69023047     0.41690
H262        H  0.02702683  0.44528236  0.74593638     0.41370
H263        H  0.03247525  0.44645873  0.81526647     0.39300
H264        H  0.04905404  0.51357247  0.87328026     0.42430
H265        H  0.00837039  0.57269594  0.87545844     0.37220
H266        H  0.02423295  0.63298515  0.81008440     0.43330
H267        H  0.03060399  0.63431321  0.74297690     0.39750
H268        H  0.03511348  0.45081206  0.84577753     0.44670
H269        H  0.03345316  0.58985985  0.87719118     0.43390
H270        H  0.03129722  0.62525706  0.71350848     0.43530
H271        H  0.00952381  0.49610656  0.69048812     0.43890
C272        C  0.18095137  0.43556554  0.86865540     0.03440
C273        C  0.18559568  0.44496940  0.89399431    -0.12710
C274        C  0.20931327  0.44021226  0.90675177     0.00940
C275        C  0.22679764  0.42227515  0.89502109    -0.11240
C276        C  0.22100684  0.41075803  0.87051752     0.03430
C277        C  0.19840485  0.41813122  0.85708131    -0.10660
H278        H  0.17096073  0.45716260  0.90307262     0.09020
H279        H  0.24508021  0.41765899  0.90445451     0.06550
H280        H  0.19463395  0.41065113  0.83751588     0.06400
C281        C  0.17954879  0.64761482  0.86412634     0.03440
C282        C  0.19764837  0.66147501  0.84928034    -0.12710
C283        C  0.22126192  0.66901804  0.86065751     0.00940
C284        C  0.22763734  0.66038656  0.88622140    -0.11240
C285        C  0.20936802  0.64625636  0.90136737     0.03430
C286        C  0.18459026  0.64255487  0.89064498    -0.10660
H287        H  0.19352644  0.66625320  0.82895256     0.09020
H288        H  0.24662834  0.66487278  0.89408781     0.06550
H289        H  0.16930337  0.63398547  0.90230923     0.06400
C290        C  0.41820747  0.85143206  0.91331818     0.03440
C291        C  0.40013529  0.83676369  0.89869120    -0.12710
C292        C  0.39047975  0.84618436  0.87434479     0.00940
C293        C  0.39970867  0.87032322  0.86493472    -0.11240
C294        C  0.41598879  0.88582993  0.88042468     0.03430
C295        C  0.42430609  0.87678988  0.90489838    -0.10660
H296        H  0.39425555  0.81776794  0.90602138     0.09020
H297        H  0.39491471  0.87676792  0.84531456     0.06550
H298        H  0.43738839  0.88882262  0.91640997     0.06400
C299        C  0.63558870  0.84202211  0.91020127     0.03440
C300        C  0.65592196  0.83136570  0.89569582    -0.12710
C301        C  0.66745632  0.84627738  0.87580043     0.00940
C302        C  0.65986813  0.87260941  0.87199369    -0.11240
C303        C  0.63891418  0.88345478  0.88639742     0.03430
C304        C  0.62597389  0.86679723  0.90396253    -0.10660
H305        H  0.66264496  0.81161215  0.89975200     0.09020
H306        H  0.67030964  0.88408096  0.85768033     0.06550
H307        H  0.60810121  0.87271448  0.91324121     0.06400
C308        C  0.18548287  0.72349156  0.39344432     0.03440
C309        C  0.17856639  0.73539191  0.41733571    -0.12710
C310        C  0.16120570  0.72283400  0.43439324     0.00940
C311        C  0.15067301  0.69858236  0.42736314    -0.11240
C312        C  0.15649436  0.68714087  0.40320367     0.03430
C313        C  0.17407487  0.69950733  0.38627800    -0.10660
H314        H  0.18646308  0.75439335  0.42252313     0.09020
H315        H  0.13598931  0.68971132  0.43971863     0.06550
H316        H  0.17828656  0.69089975  0.36729883     0.06400
C317        C  0.30262097  0.80655774  0.33771110     0.02590
C318        C  0.27856273  0.79684443  0.34817251     0.02590
C319        C  0.26500489  0.77682704  0.33423040     0.02590
C320        C  0.27501496  0.76706348  0.31032840     0.02590
C321        C  0.29800640  0.77771112  0.29995714     0.02590
C322        C  0.30751897  0.80185377  0.31029118     0.02590
C323        C  0.36231862  0.70737717  0.23765806     0.03440
C324        C  0.35074207  0.68295739  0.23291532    -0.12710
C325        C  0.36355088  0.66394946  0.21811249     0.00940
C326        C  0.38926654  0.66835695  0.21048482    -0.11240
C327        C  0.39999137  0.69372310  0.21146049     0.03430
C328        C  0.38669379  0.71301916  0.22632831    -0.10660
H329        H  0.33078068  0.67965755  0.23866884     0.09020
H330        H  0.39927761  0.65280025  0.20021376     0.06550
H331        H  0.39431821  0.73274091  0.22777401     0.06400
O332        O  0.32289809  0.49323992  0.03335243    -0.74980
O333        O  0.30438920  0.51494664  0.99915753    -0.53890
C334        C  0.31780257  0.49601675  0.00878334     0.78740
O335        O  0.22694958  0.49150449  0.11167050    -0.59590
O336        O  0.24383719  0.51716355  0.14401332    -0.52610
C337        C  0.23098437  0.49695004  0.13596338     0.70760
O338        O  0.23339842  0.49039839  0.02401329    -0.74140
O339        O  0.25302957  0.51792239  0.99493975    -0.54710
C340        C  0.23960093  0.49755742  0.00058053     0.76760
O341        O  0.32162988  0.49821342  0.12107384    -0.59290
O342        O  0.29567864  0.52082867  0.14948131    -0.52410
C343        C  0.31254341  0.50305472  0.14408738     0.73350
Zr344      Zr  0.31517600  0.51289697  0.07587002     2.54710
O345        O  0.32689336  0.46677248  0.07951271    -0.79850
O346        O  0.36130578  0.52288139  0.07656538    -0.93270
Zr347      Zr  0.23774172  0.50855114  0.06852531     2.64680
O348        O  0.23637047  0.46082737  0.06621409    -0.98230
O349        O  0.19071053  0.51159824  0.06563264    -0.80290
O350        O  0.27859298  0.50930328  0.04782502    -0.83640
O351        O  0.27445686  0.51052491  0.09672578    -2.18350
O352        O  0.31932146  0.60437140  0.11693131    -0.67030
O353        O  0.29669479  0.58069226  0.14718097    -0.51600
C354        C  0.31246265  0.59920969  0.14066590     0.71740
O355        O  0.23186693  0.60438504  0.02275994    -0.59940
O356        O  0.25419647  0.57774637  0.99465183    -0.51920
C357        C  0.23970282  0.59756117  0.99971671     0.73540
O358        O  0.22279398  0.60457347  0.11055352    -0.71340
O359        O  0.24103970  0.57980828  0.14306581    -0.50010
C360        C  0.22700904  0.59906893  0.13494909     0.74920
O361        O  0.32501888  0.60098229  0.02823528    -0.66670
O362        O  0.30754313  0.57450951  0.99704805    -0.53860
C363        C  0.32190327  0.59367239  0.00419282     0.73300
Zr364      Zr  0.31063731  0.58958164  0.07239295     2.77540
O365        O  0.30049530  0.63576116  0.06603258    -0.97420
O366        O  0.35702886  0.59745695  0.07602246    -0.78240
Zr367      Zr  0.23394149  0.58599734  0.06738103     2.70070
O368        O  0.22098712  0.63192251  0.06622135    -0.79480
O369        O  0.18829235  0.57497816  0.06252136    -0.98570
Zr370      Zr  0.27828643  0.54742687  0.02138608     2.21500
Zr371      Zr  0.27057192  0.54988617  0.12160291     2.11130
O372        O  0.27079072  0.58858589  0.09516756    -2.47250
O373        O  0.27405241  0.58736198  0.04483315    -0.79280
O374        O  0.31168145  0.55207544  0.10021485    -0.71470
O375        O  0.23683595  0.54681426  0.04204516    -2.32430
O376        O  0.31605433  0.55020124  0.04840370    -2.28640
O377        O  0.23299813  0.54758398  0.09401136    -0.73230
H378        H  0.27461600  0.49511588  0.10772001     0.78770
H379        H  0.22298514  0.54604145  0.02924325     0.79850
H380        H  0.26998577  0.60422792  0.10580223     0.82080
H381        H  0.33177233  0.55034033  0.03811052     0.79680
H382        H  0.18698062  0.51236104  0.04656824     0.42720
H383        H  0.18154938  0.57471722  0.08070539     0.41690
H384        H  0.23742201  0.64172147  0.06834749     0.41370
H385        H  0.29244085  0.64151817  0.08267657     0.39300
H386        H  0.36454299  0.57996677  0.07978259     0.42430
H387        H  0.36755835  0.51775288  0.05892926     0.37220
H388        H  0.31021314  0.45733572  0.07772509     0.43330
H389        H  0.24620253  0.45456493  0.08172436     0.39750
H390        H  0.31754855  0.64459355  0.06537036     0.44670
H391        H  0.36888574  0.50961411  0.08855156     0.43390
H392        H  0.21811990  0.45614492  0.06983388     0.43530
H393        H  0.18039029  0.59079804  0.05451847     0.43890
O394        O  0.97114022  0.49916893  0.37523030    -0.74980
O395        O  0.99381949  0.46772820  0.35300601    -0.53890
C396        C  0.97482977  0.47536600  0.36770240     0.78740
O397        O  0.97714151  0.58825502  0.28479295    -0.59590
O398        O  0.00178950  0.61868085  0.30635478    -0.52610
C399        C  0.98245252  0.61185653  0.29189236     0.70760
O400        O  0.98271284  0.50055253  0.27685101    -0.74140
O401        O  0.00429186  0.46735036  0.29694730    -0.54710
C402        C  0.98807594  0.47613544  0.27977850     0.76760
O403        O  0.97464082  0.58661398  0.37833579    -0.59290
O404        O  0.00119412  0.61698158  0.35942312    -0.52410
C405        C  0.98100954  0.61042544  0.37259708     0.73350
Zr406      Zr  0.99128281  0.54206825  0.37010004     2.54710
O407        O  0.94475044  0.54408386  0.37762617    -0.79850
O408        O  0.99792171  0.53970338  0.41736988    -0.93270
Zr409      Zr  0.99411152  0.54417154  0.29149690     2.64680
O410        O  0.94734655  0.54076057  0.28571774    -0.98230
O411        O  0.00087639  0.54990433  0.24456403    -0.80290
O412        O  0.99141765  0.51802822  0.32997670    -0.83640
O413        O  0.99279268  0.56745753  0.33141508    -2.18350
O414        O  0.08605210  0.58427564  0.38028270    -0.67030
O415        O  0.06110120  0.61586961  0.36130044    -0.51600
C416        C  0.08107931  0.60842902  0.37439761     0.71740
O417        O  0.08431627  0.49932031  0.28782866    -0.59940
O418        O  0.06103058  0.46591799  0.30496164    -0.51920
C419        C  0.08019269  0.47485389  0.29150267     0.73540
O420        O  0.08859193  0.58642144  0.28882561    -0.71340
O421        O  0.06320409  0.61773171  0.30780911    -0.50010
C422        C  0.08346681  0.61032554  0.29505958     0.74920
O423        O  0.08614647  0.49702591  0.37447352    -0.66670
O424        O  0.05881573  0.46610416  0.35775805    -0.53860
C425        C  0.07984880  0.47313573  0.36943564     0.73300
Zr426      Zr  0.06668177  0.54060615  0.37295384     2.77540
O427        O  0.11052642  0.53739776  0.39073349    -0.97420
O428        O  0.05456916  0.53835564  0.41904626    -0.78240
Zr429      Zr  0.06931896  0.54324309  0.29453109     2.70070
O430        O  0.11588962  0.54074862  0.28726784    -0.79480
O431        O  0.06395163  0.54451254  0.24706500    -0.98570
Zr432      Zr  0.02912224  0.49088053  0.33029747     2.21500
Zr433      Zr  0.03150551  0.59276549  0.33300528     2.11130
O434        O  0.06957844  0.56632439  0.33438968    -2.47250
O435        O  0.06759428  0.51691355  0.33283600    -0.79280
O436        O  0.02944931  0.56795088  0.37292951    -0.71470
O437        O  0.03153901  0.51740976  0.29154108    -2.32430
O438        O  0.02846513  0.51439139  0.37130792    -2.28640
O439        O  0.03214416  0.57018089  0.29213225    -0.73230
H440        H  0.97746841  0.57829974  0.33124985     0.78770
H441        H  0.03245827  0.50678960  0.27585651     0.79850
H442        H  0.08544229  0.57627235  0.33480808     0.82080
H443        H  0.02773611  0.50241009  0.38603221     0.79680
H444        H  0.00935163  0.53345139  0.23879674     0.42720
H445        H  0.06276487  0.56342150  0.24277329     0.41690
H446        H  0.12302214  0.53411641  0.30408390     0.41370
H447        H  0.12155708  0.54744852  0.37843876     0.39300
H448        H  0.05715157  0.55643255  0.42564870     0.42430
H449        H  0.99424938  0.52119876  0.42193344     0.37220
H450        H  0.93708162  0.54448286  0.35978592     0.43330
H451        H  0.93993223  0.55123793  0.30025240     0.39750
H452        H  0.11038085  0.54785942  0.40711125     0.44670
H453        H  0.98320214  0.54966420  0.42485639     0.43390
H454        H  0.94343981  0.55102370  0.26967687     0.43530
H455        H  0.08101660  0.53898317  0.24010125     0.43890
C456        C  0.19939285  0.41941187  0.21290068     0.03440
C457        C  0.17347942  0.42272398  0.22000116    -0.12710
C458        C  0.16503759  0.41571303  0.24520709     0.00940
C459        C  0.18085401  0.39929047  0.26057449    -0.11240
C460        C  0.20557580  0.39206175  0.25150593     0.03430
C461        C  0.21528191  0.40315077  0.22827025    -0.10660
H462        H  0.16096645  0.43444066  0.20750038     0.09020
H463        H  0.17445735  0.39286073  0.27976987     0.06550
H464        H  0.23517219  0.39958303  0.22256783     0.06400
C465        C  0.87358895  0.41512742  0.20309307     0.03440
C466        C  0.90016708  0.41785664  0.20675004    -0.12710
C467        C  0.91201941  0.40919476  0.23005142     0.00940
C468        C  0.89816175  0.39143701  0.24599343    -0.11240
C469        C  0.87216402  0.38465424  0.23992562     0.03430
C470        C  0.85953709  0.39848971  0.21956832    -0.10660
H471        H  0.91073798  0.43015453  0.19312188     0.09020
H472        H  0.90715944  0.38374005  0.26348317     0.06550
H473        H  0.83879155  0.39668422  0.21675693     0.06400
C474        C  0.89855429  0.67142333  0.25107933     0.03440
C475        C  0.89066022  0.65796824  0.22850300    -0.12710
C476        C  0.86563078  0.66133969  0.21826625     0.00940
C477        C  0.84895369  0.67985900  0.22988501    -0.11240
C478        C  0.85699615  0.69396538  0.25218287     0.03430
C479        C  0.88168265  0.68943079  0.26290878    -0.10660
H480        H  0.90354047  0.64356669  0.21981311     0.09020
H481        H  0.82964384  0.68289065  0.22199846     0.06550
H482        H  0.88753900  0.69947934  0.28071572     0.06400
O483        O  0.73716111  0.59885697  0.02777343    -0.74980
O484        O  0.75286290  0.57398395  0.99448738    -0.53890
C485        C  0.73979962  0.59365088  0.00324385     0.78740
O486        O  0.83399105  0.60181984  0.10829512    -0.59590
O487        O  0.81861919  0.57437800  0.14007273    -0.52610
C488        C  0.83068950  0.59511039  0.13251837     0.70760
O489        O  0.82757510  0.60110024  0.01965671    -0.74140
O490        O  0.80528241  0.57478695  0.99160530    -0.54710
C491        C  0.81975388  0.59456353  0.99647788     0.76760
O492        O  0.74098665  0.59621282  0.11511861    -0.59290
O493        O  0.76494849  0.57321095  0.14506806    -0.52410
C494        C  0.74917481  0.59172706  0.13852510     0.73350
Zr495      Zr  0.74645178  0.58039150  0.07072975     2.54710
O496        O  0.73665751  0.62701497  0.07354757    -0.79850
O497        O  0.70009533  0.57175481  0.07265322    -0.93270
Zr498      Zr  0.82394551  0.58374927  0.06451554     2.64680
O499        O  0.83048363  0.63079576  0.05973424    -0.98230
O500        O  0.87068403  0.57748873  0.06224979    -0.80290
O501        O  0.78303942  0.58274906  0.04306758    -0.83640
O502        O  0.78709845  0.58258098  0.09224004    -2.18350
O503        O  0.74500839  0.48745015  0.11494621    -0.67030
O504        O  0.76655272  0.51286571  0.14479164    -0.51600
C505        C  0.75247969  0.49311337  0.13835415     0.71740
O506        O  0.82654941  0.48724612  0.02003185    -0.59940
O507        O  0.80606284  0.51360680  0.99055577    -0.51920
C508        C  0.81919737  0.49301297  0.99651894     0.73540
O509        O  0.83802074  0.48870448  0.10651338    -0.71340
O510        O  0.81934089  0.51214735  0.13950431    -0.50010
C511        C  0.83349880  0.49311921  0.13097094     0.74920
O512        O  0.74099434  0.48527274  0.02699382    -0.66670
O513        O  0.75493922  0.51267256  0.99453741    -0.53860
C514        C  0.74396397  0.49167929  0.00276984     0.73300
Zr515      Zr  0.74891074  0.50394314  0.07028919     2.77540
O516        O  0.74205068  0.45664221  0.07008635    -0.97420
O517        O  0.70210602  0.50960783  0.07258779    -0.78240
Zr518      Zr  0.82644869  0.50696665  0.06377643     2.70070
O519        O  0.84160663  0.46171988  0.06314745    -0.79480
O520        O  0.87179537  0.51844302  0.05750656    -0.98570
Zr521      Zr  0.78175827  0.54391266  0.01747831     2.21500
Zr522      Zr  0.79057539  0.54346935  0.11787307     2.11130
O523        O  0.78973885  0.50468798  0.09159556    -2.47250
O524        O  0.78562272  0.50492830  0.04258648    -0.79280
O525        O  0.74907001  0.54209074  0.09695363    -0.71470
O526        O  0.82360380  0.54544760  0.03783556    -2.32430
O527        O  0.74414247  0.54226255  0.04444535    -2.28640
O528        O  0.82826114  0.54512999  0.09050573    -0.73230
H529        H  0.78718620  0.59815839  0.10297633     0.78770
H530        H  0.83728109  0.54589889  0.02489688     0.79850
H531        H  0.79096609  0.48896399  0.10201097     0.82080
H532        H  0.72846841  0.54182279  0.03409375     0.79680
H533        H  0.87490333  0.57970811  0.04342498     0.42720
H534        H  0.88011753  0.51445084  0.07459013     0.41690
H535        H  0.82578955  0.45114443  0.06610117     0.41370
H536        H  0.75658266  0.44929305  0.08050277     0.39300
H537        H  0.69864822  0.51342766  0.09131740     0.42430
H538        H  0.69394689  0.57400576  0.05435884     0.37220
H539        H  0.75385568  0.63561082  0.07402794     0.43330
H540        H  0.81457064  0.63875860  0.06709005     0.39750
H541        H  0.72643795  0.45369845  0.08096242     0.44670
H542        H  0.69282209  0.58699342  0.08219366     0.43390
H543        H  0.84450447  0.63545323  0.07218264     0.43530
H544        H  0.87851324  0.50483385  0.04542460     0.43890
C545        C  0.68499250  0.93745354  0.37169948     0.03440
C546        C  0.69989736  0.91813892  0.35925114    -0.12710
C547        C  0.72445898  0.91148049  0.36916709     0.00940
C548        C  0.73413783  0.92403316  0.39172751    -0.11240
C549        C  0.71884587  0.94268000  0.40492554     0.03430
C550        C  0.69432310  0.94879797  0.39481762    -0.10660
H551        H  0.69246075  0.90818976  0.34201627     0.09020
H552        H  0.75335507  0.91917357  0.39884142     0.06550
H553        H  0.68249102  0.96325172  0.40477644     0.06400
C554        C  0.91265968  0.69738005  0.39658819     0.03440
C555        C  0.91752703  0.70866968  0.42118037    -0.12710
C556        C  0.90471797  0.73153869  0.42917577     0.00940
C557        C  0.88639392  0.74310800  0.41240645    -0.11240
C558        C  0.88150910  0.73231739  0.38753911     0.03430
C559        C  0.89445462  0.70931215  0.37973633    -0.10660
H560        H  0.93231591  0.70021457  0.43378876     0.09020
H561        H  0.87640872  0.76084487  0.41839201     0.06550
H562        H  0.89031913  0.70081126  0.36069192     0.06400
C563        C  0.77478704  0.82286615  0.32045507     0.02590
C564        C  0.79697118  0.81159031  0.33239793     0.02590
C565        C  0.80667958  0.78744004  0.32317475     0.02590
C566        C  0.79540769  0.77532874  0.30105031     0.02590
C567        C  0.77235039  0.78573733  0.28992183     0.02590
C568        C  0.76313483  0.81066024  0.29824717     0.02590
C569        C  0.71071779  0.71624950  0.22432811     0.03440
C570        C  0.72085451  0.69178792  0.21688904    -0.12710
C571        C  0.70661358  0.67502979  0.20054948     0.00940
C572        C  0.68171330  0.68243138  0.19223571    -0.11240
C573        C  0.67120922  0.70673425  0.19963269     0.03430
C574        C  0.68569940  0.72351191  0.21585887    -0.10660
H575        H  0.74034027  0.68629261  0.22274652     0.09020
H576        H  0.67141772  0.67027434  0.17821200     0.06550
H577        H  0.67813374  0.74277563  0.22063675     0.06400
O578        O  0.58206667  0.81037719  0.02015026    -0.74980
O579        O  0.55404991  0.79198481  0.99114478    -0.53890
C580        C  0.57504881  0.80413418  0.99661583     0.78740
O581        O  0.58674470  0.72776078  0.11226339    -0.59590
O582        O  0.56208517  0.74683063  0.14412739    -0.52610
C583        C  0.58239254  0.73439607  0.13624309     0.70760
O584        O  0.58701228  0.72867716  0.02469353    -0.74140
O585        O  0.55750191  0.74053415  0.99353194    -0.54710
C586        C  0.57975918  0.73169839  0.00061648     0.76760
O587        O  0.58073659  0.82159727  0.10758673    -0.59290
O588        O  0.55965065  0.80027175  0.14061850    -0.52410
C589        C  0.57692729  0.81637499  0.13199530     0.73350
Zr590      Zr  0.56384776  0.80909475  0.06467502     2.54710
O591        O  0.60943163  0.82135728  0.06484224    -0.79850
O592        O  0.55415510  0.85541423  0.05817371    -0.93270
Zr593      Zr  0.56725682  0.73051054  0.06857260     2.64680
O594        O  0.61213647  0.71546563  0.06661497    -0.98230
O595        O  0.55878797  0.68355686  0.06891291    -0.80290
O596        O  0.56571681  0.76865441  0.04220700    -0.83640
O597        O  0.56688228  0.77115481  0.09145047    -2.18350
O598        O  0.47354032  0.81770654  0.11183993    -0.67030
O599        O  0.49912479  0.79861014  0.14298289    -0.51600
C600        C  0.47988797  0.81320058  0.13591394     0.71740
O601        O  0.47155993  0.72195869  0.02598509    -0.59940
O602        O  0.49932273  0.73666246  0.99450815    -0.51920
C603        C  0.47854129  0.72523339  0.00178514     0.73540
O604        O  0.47701349  0.72101789  0.11563219    -0.71340
O605        O  0.50047995  0.74369908  0.14590346    -0.50010
C606        C  0.48200519  0.72791747  0.13951279     0.74920
O607        O  0.46878582  0.81152993  0.02393098    -0.66670
O608        O  0.49495051  0.79148778  0.99387565    -0.53860
C609        C  0.47522719  0.80555008  0.00026937     0.73300
Zr610      Zr  0.48773299  0.80591283  0.06760461     2.77540
O611        O  0.44055648  0.80844081  0.06876594    -0.97420
O612        O  0.49143602  0.85337400  0.06401955    -0.78240
Zr613      Zr  0.49112197  0.72762762  0.07023986     2.70070
O614        O  0.44555567  0.71574655  0.07346191    -0.79480
O615        O  0.49983958  0.68070451  0.06932281    -0.98570
Zr616      Zr  0.52640073  0.76601367  0.01832088     2.21500
Zr617      Zr  0.52924490  0.77057433  0.11893947     2.11130
O618        O  0.48991124  0.76778506  0.09399152    -2.47250
O619        O  0.48816452  0.76579100  0.04411918    -0.79280
O620        O  0.52673596  0.80932572  0.09242818    -0.71470
O621        O  0.52866339  0.72665435  0.04350238    -2.32430
O622        O  0.52489601  0.80729581  0.04016087    -2.28640
O623        O  0.52990799  0.72948959  0.09588797    -0.73230
H624        H  0.58270493  0.77295898  0.10139741     0.78770
H625        H  0.52901587  0.71132961  0.03237625     0.79850
H626        H  0.47488613  0.76795878  0.10524286     0.82080
H627        H  0.52380571  0.82155040  0.02773395     0.79680
H628        H  0.56583772  0.67719914  0.05199989     0.42720
H629        H  0.50150968  0.67570411  0.08804049     0.41690
H630        H  0.43631249  0.73277317  0.07422642     0.41370
H631        H  0.43528853  0.79626026  0.08292287     0.39300
H632        H  0.49967667  0.85887179  0.08070752     0.42430
H633        H  0.55296312  0.85759270  0.03889170     0.37220
H634        H  0.61883697  0.80445645  0.06621571     0.43330
H635        H  0.62242322  0.72941289  0.07525058     0.39750
H636        H  0.43660132  0.82615922  0.07565897     0.44670
H637        H  0.57044216  0.86446729  0.06297964     0.43390
H638        H  0.61320082  0.70024249  0.07865258     0.43530
H639        H  0.48326483  0.67275179  0.06359916     0.43890
C640        C  0.41239494  0.86239387  0.21292492     0.03440
C641        C  0.39137758  0.85051776  0.22578471    -0.12710
C642        C  0.37538878  0.86501003  0.24322962     0.00940
C643        C  0.38183238  0.89154133  0.24799912    -0.11240
C644        C  0.40395795  0.90268100  0.23674827     0.03430
C645        C  0.41866259  0.88832405  0.21875643    -0.10660
H646        H  0.38835703  0.82975987  0.22277720     0.09020
H647        H  0.37063095  0.90347456  0.26135287     0.06550
H648        H  0.43580860  0.89705893  0.21012173     0.06400
C649        C  0.64840231  0.86489859  0.20601190     0.03440
C650        C  0.66990597  0.85297517  0.21836212    -0.12710
C651        C  0.68318635  0.86592360  0.23881222     0.00940
C652        C  0.67591156  0.89157042  0.24578943    -0.11240
C653        C  0.65523695  0.90393356  0.23292390     0.03430
C654        C  0.64157630  0.89053672  0.21337275    -0.10660
H655        H  0.67583089  0.83337151  0.21278716     0.09020
H656        H  0.68563851  0.90146333  0.26185618     0.06550
H657        H  0.62454273  0.89975750  0.20489273     0.06400
C658        C  0.67888939  0.37742489  0.19611546     0.03440
C659        C  0.69077775  0.40101700  0.18844660    -0.12710
C660        C  0.71305698  0.41033451  0.20100152     0.00940
C661        C  0.72515391  0.39518642  0.22027142    -0.11240
C662        C  0.71481439  0.37090340  0.22738985     0.03430
C663        C  0.69131616  0.36238394  0.21598777    -0.10660
H664        H  0.68388467  0.41163445  0.17141532     0.09020
H665        H  0.74355961  0.40148202  0.22843220     0.06550
H666        H  0.68352803  0.34367499  0.22207831     0.06400
C667        C  0.81238255  0.30257750  0.32752550     0.02590
C668        C  0.80705012  0.31328541  0.30216922     0.02590
C669        C  0.78336730  0.30477994  0.28967026     0.02590
C670        C  0.77133761  0.28126034  0.29784982     0.02590
C671        C  0.78229285  0.26692114  0.31900936     0.02590
C672        C  0.80605591  0.27528574  0.33070728     0.02590
C673        C  0.68483139  0.15663139  0.37096589     0.03440
C674        C  0.69877509  0.17619846  0.35786209    -0.12710
C675        C  0.72203178  0.18567471  0.36867689     0.00940
C676        C  0.73120231  0.17544370  0.39256236    -0.11240
C677        C  0.71730636  0.15576223  0.40535113     0.03430
C678        C  0.69417486  0.14658086  0.39465823    -0.10660
H679        H  0.69149132  0.18411220  0.33951100     0.09020
H680        H  0.74943128  0.18219908  0.40074103     0.06550
H681        H  0.68381373  0.13087688  0.40444597     0.06400
O682        O  0.48786047  0.98725189  0.25994709    -0.74980
O683        O  0.45553878  0.01448296  0.27342483    -0.53890
C684        C  0.46392892  0.99238934  0.26480781     0.78740
O685        O  0.57559672  0.99439924  0.34445748    -0.59590
O686        O  0.60509237  0.01827688  0.32145447    -0.52610
C687        C  0.59881562  0.99952593  0.33700382     0.70760
O688        O  0.49053918  0.99004631  0.34113098    -0.74140
O689        O  0.45758783  0.01430399  0.32423805    -0.54710
C690        C  0.46642006  0.99415073  0.33669258     0.76760
O691        O  0.57289903  0.99037504  0.25227682    -0.59290
O692        O  0.60435331  0.01664601  0.26963522    -0.52410
C693        C  0.59664151  0.99573887  0.25787077     0.73350
Zr694      Zr  0.52972474  0.00900280  0.25785630     2.54710
O695        O  0.53047634  0.96393814  0.24205120    -0.79850
O696        O  0.52500145  0.01716203  0.21102509    -0.93270
Zr697      Zr  0.53191826  0.01113922  0.33708377     2.64680
O698        O  0.53158446  0.96590832  0.35270857    -0.98230
O699        O  0.53059335  0.02275958  0.38341598    -0.80290
O700        O  0.50688037  0.00902347  0.29807466    -0.83640
O701        O  0.55468261  0.00893215  0.29703811    -2.18350
O702        O  0.57340267  0.10493096  0.25144628    -0.67030
O703        O  0.60437859  0.07876761  0.26976048    -0.51600
C704        C  0.59725085  0.09961014  0.25759793     0.71740
O705        O  0.48634766  0.10499038  0.34162512    -0.59940
O706        O  0.45612561  0.07684802  0.32515263    -0.51920
C707        C  0.46278534  0.09773852  0.33759192     0.73540
O708        O  0.57297582  0.10422604  0.34354117    -0.71340
O709        O  0.60266013  0.07824133  0.32291722    -0.50010
C710        C  0.59629638  0.09793308  0.33727320     0.74920
O711        O  0.48600857  0.10488541  0.25553733    -0.66670
O712        O  0.45496989  0.07769387  0.27192148    -0.53860
C713        C  0.46226905  0.09916863  0.26100501     0.73300
Zr714      Zr  0.52944831  0.08541238  0.25594716     2.77540
O715        O  0.52737258  0.12920746  0.23680387    -0.97420
O716        O  0.52763904  0.07379797  0.20964032    -0.78240
Zr717      Zr  0.52976302  0.08731156  0.33481846     2.70070
O718        O  0.53126243  0.13477372  0.33938077    -0.79480
O719        O  0.52858725  0.08256557  0.38234683    -0.98570
Zr720      Zr  0.48017074  0.04688909  0.29753621     2.21500
Zr721      Zr  0.57952966  0.04807431  0.29528681     2.11130
O722        O  0.55374251  0.08700836  0.29533189    -2.47250
O723        O  0.50515007  0.08613296  0.29560651    -0.79280
O724        O  0.55577301  0.04721056  0.25501080    -0.71470
O725        O  0.50461563  0.04855369  0.33746027    -2.32430
O726        O  0.50317694  0.04696350  0.25656195    -2.28640
O727        O  0.55707025  0.04968954  0.33620509    -0.73230
H728        H  0.56502441  0.99318854  0.29777701     0.78770
H729        H  0.49344619  0.04864927  0.35269159     0.79850
H730        H  0.56394410  0.10280925  0.29590878     0.82080
H731        H  0.49132866  0.04654207  0.24186599     0.79680
H732        H  0.51509609  0.01359342  0.39023498     0.42720
H733        H  0.54680092  0.07898208  0.38740517     0.41690
H734        H  0.53390143  0.14126557  0.32125456     0.41370
H735        H  0.53693167  0.14063110  0.24919849     0.39300
H736        H  0.54583655  0.07507346  0.20362771     0.42430
H737        H  0.50933806  0.00716897  0.20591516     0.37220
H738        H  0.53294915  0.95317887  0.25806339     0.43330
H739        H  0.54242739  0.95597302  0.34012672     0.39750
H740        H  0.53842280  0.12843441  0.22094987     0.44670
H741        H  0.53955959  0.00743873  0.20291318     0.43390
H742        H  0.54160184  0.96597117  0.36931895     0.43530
H743        H  0.52516970  0.10052171  0.38890703     0.43890
O744        O  0.48684191  0.34476851  0.02074384    -0.74980
O745        O  0.45477151  0.32684227  0.04539385    -0.53890
C746        C  0.46293708  0.33952706  0.02518651     0.78740
O747        O  0.56765111  0.25031648  0.02227432    -0.59590
O748        O  0.60027470  0.27240647  0.04250700    -0.52610
C749        C  0.59140646  0.25722018  0.02427745     0.70760
O750        O  0.48175976  0.25389615  0.02140696    -0.74140
O751        O  0.45163707  0.27625539  0.04541434    -0.54710
C752        C  0.45852315  0.26173106  0.02597516     0.76760
O753        O  0.57228773  0.34655669  0.02294110    -0.59290
O754        O  0.60247800  0.32454743  0.04700534    -0.52410
C755        C  0.59580365  0.33938471  0.02760967     0.73350
Zr756      Zr  0.52899301  0.33950181  0.04112963     2.54710
O757        O  0.52820765  0.34696623  0.99405120    -0.79850
O758        O  0.52819045  0.38661701  0.04874984    -0.93270
Zr759      Zr  0.52525844  0.26168194  0.03788161     2.64680
O760        O  0.52192403  0.27160165  0.99113161    -0.98230
O761        O  0.52389666  0.21416237  0.03346496    -0.80290
O762        O  0.50276846  0.30158671  0.03936148    -0.83640
O763        O  0.55173924  0.29947091  0.03892964    -2.18350
O764        O  0.57215088  0.34541328  0.13410472    -0.67030
O765        O  0.60206535  0.32179340  0.11085912    -0.51600
C766        C  0.59547507  0.33772994  0.12944496     0.71740
O767        O  0.48342465  0.25311853  0.13247649    -0.59940
O768        O  0.45261119  0.27310622  0.10718092    -0.51920
C769        C  0.45974368  0.25905895  0.12686245     0.73540
O770        O  0.57110683  0.24536172  0.12653753    -0.71340
O771        O  0.60246134  0.26552911  0.10268942    -0.50010
C772        C  0.59505991  0.24936229  0.12051726     0.74920
O773        O  0.48488122  0.34357539  0.13583804    -0.66670
O774        O  0.45418935  0.32792940  0.10754773    -0.53860
C775        C  0.46117877  0.33993464  0.12852717     0.73300
Zr776      Zr  0.52849252  0.33623120  0.11787478     2.77540
O777        O  0.52832663  0.33885649  0.16565451    -0.97420
O778        O  0.52755203  0.38379925  0.11376684    -0.78240
Zr779      Zr  0.52685628  0.25811333  0.11432445     2.70070
O780        O  0.52945034  0.25002832  0.16135441    -0.79480
O781        O  0.52219489  0.21127282  0.10640395    -0.98570
Zr782      Zr  0.47738739  0.30021513  0.07758008     2.21500
Zr783      Zr  0.57807218  0.29717444  0.07723929     2.11130
O784        O  0.55258492  0.29641671  0.11645345    -2.47250
O785        O  0.50301382  0.29776881  0.11641081    -0.79280
O786        O  0.55501013  0.33791432  0.07957057    -0.71470
O787        O  0.50010748  0.25944386  0.07640925    -2.32430
O788        O  0.50264958  0.33958819  0.07933196    -2.28640
O789        O  0.55206780  0.25832546  0.07564974    -0.73230
H790        H  0.56186430  0.29961030  0.02304631     0.78770
H791        H  0.48832156  0.24474469  0.07592007     0.79850
H792        H  0.56342378  0.29519442  0.13188852     0.82080
H793        H  0.49171416  0.35497961  0.07979851     0.79680
H794        H  0.51182654  0.20832697  0.04736973     0.42720
H795        H  0.54004197  0.20502183  0.10290083     0.41690
H796        H  0.52952123  0.26775437  0.16930077     0.41370
H797        H  0.54124964  0.32571290  0.17155165     0.39300
H798        H  0.54483475  0.38840959  0.10673115     0.42430
H799        H  0.50978742  0.39164346  0.04630867     0.37220
H800        H  0.53035454  0.32929331  0.98628187     0.43330
H801        H  0.53991273  0.27387359  0.98483777     0.39750
H802        H  0.53618581  0.35605689  0.16988054     0.44670
H803        H  0.53715116  0.39413470  0.03331656     0.43390
H804        H  0.51562274  0.25535059  0.98266271     0.43530
H805        H  0.51782862  0.20383361  0.12379598     0.43890
C806        C  0.36184379  0.21721713  0.24046224     0.03440
C807        C  0.37047291  0.19205142  0.24774890    -0.12710
C808        C  0.38808772  0.17850605  0.23173747     0.00940
C809        C  0.39613526  0.18975798  0.20807648    -0.11240
C810        C  0.38852910  0.21519497  0.20132442     0.03430
C811        C  0.37109873  0.22879735  0.21732853    -0.10660
H812        H  0.36517315  0.18403906  0.26670180     0.09020
H813        H  0.41117112  0.18014847  0.19669987     0.06550
H814        H  0.36613565  0.24896685  0.21275574     0.06400
C815        C  0.41824279  0.20013721  0.89509593     0.03440
C816        C  0.42124725  0.20858147  0.92117005    -0.12710
C817        C  0.40946492  0.23168721  0.93010010     0.00940
C818        C  0.39322702  0.24595355  0.91302221    -0.11240
C819        C  0.38863981  0.23712822  0.88721106     0.03430
C820        C  0.40116966  0.21406800  0.87840765    -0.10660
H821        H  0.43403881  0.19785271  0.93426322     0.09020
H822        H  0.38420683  0.26392401  0.91981686     0.06550
H823        H  0.39838283  0.20758276  0.85834251     0.06400
C824        C  0.65385313  0.22335064  0.93662468     0.03440
C825        C  0.64502973  0.19840156  0.92918174    -0.12710
C826        C  0.65247413  0.18669738  0.90562539     0.00940
C827        C  0.67146983  0.19954605  0.89037117    -0.11240
C828        C  0.68089403  0.22443759  0.89769837     0.03430
C829        C  0.67190739  0.23637644  0.92083712    -0.10660
H830        H  0.62977495  0.18956302  0.94064925     0.09020
H831        H  0.67799988  0.19097578  0.87208620     0.06550
H832        H  0.67798778  0.25611064  0.92577115     0.06400
O833        O  0.58029665  0.99615108  0.76738043    -0.74980
O834        O  0.55771530  0.96628843  0.79152346    -0.53890
C835        C  0.57458033  0.97242307  0.77408838     0.78740
O836        O  0.58415916  0.08586784  0.86981267    -0.59590
O837        O  0.56366134  0.11680001  0.84494343    -0.52610
C838        C  0.58081929  0.10957494  0.86208480     0.70760
O839        O  0.58680695  0.99987721  0.86603140    -0.74140
O840        O  0.56235219  0.96910409  0.84495369    -0.54710
C841        C  0.58160713  0.97622608  0.85934638     0.76760
O842        O  0.57982862  0.08514419  0.76546671    -0.59290
O843        O  0.55866212  0.11711710  0.78820843    -0.52410
C844        C  0.57526305  0.10932411  0.77108234     0.73350
Zr845      Zr  0.56803205  0.04124229  0.77930652     2.54710
O846        O  0.61521861  0.04110985  0.77945647    -0.79850
O847        O  0.56671282  0.04135934  0.73152410    -0.93270
Zr848      Zr  0.56790764  0.04275862  0.85839178     2.64680
O849        O  0.61462032  0.04196575  0.86578724    -0.98230
O850        O  0.55988286  0.04090542  0.90545343    -0.80290
O851        O  0.56905123  0.01756751  0.81921184    -0.83640
O852        O  0.56942871  0.06680170  0.81841578    -2.18350
O853        O  0.47702493  0.08734341  0.76959670    -0.67030
O854        O  0.50234946  0.11778612  0.79048829    -0.51600
C855        C  0.48343317  0.11109840  0.77552102     0.71740
O856        O  0.47084355  0.99993121  0.85776756    -0.59940
O857        O  0.50054910  0.96933929  0.84597461    -0.51920
C858        C  0.47796322  0.97590782  0.85410754     0.73540
O859        O  0.47438691  0.08827416  0.86434355    -0.71340
O860        O  0.50136546  0.11827427  0.84541285    -0.50010
C861        C  0.48116876  0.11205056  0.85888012     0.74920
O862        O  0.47704875  0.99696573  0.77009652    -0.66670
O863        O  0.50146296  0.96715325  0.79292660    -0.53860
C864        C  0.48320736  0.97331316  0.77697877     0.73300
Zr865      Zr  0.49161277  0.04233411  0.77908990     2.77540
O866        O  0.44446635  0.04149300  0.77628581    -0.97420
O867        O  0.49571372  0.04248520  0.73148143    -0.78240
Zr868      Zr  0.49148443  0.04349727  0.85750672     2.70070
O869        O  0.44623554  0.04701386  0.87050098    -0.79480
O870        O  0.49934514  0.03897700  0.90440740    -0.98570
Zr871      Zr  0.53039886  0.99293364  0.81928571     2.21500
Zr872      Zr  0.53121560  0.09305621  0.81839744     2.11130
O873        O  0.49195000  0.06794348  0.81799501    -2.47250
O874        O  0.49136030  0.01802012  0.81858407    -0.79280
O875        O  0.53021519  0.06771190  0.77882589    -0.71470
O876        O  0.52959742  0.01705441  0.85942232    -2.32430
O877        O  0.52963346  0.01619820  0.77877702    -2.28640
O878        O  0.52995316  0.06928491  0.85871976    -0.73230
H879        H  0.58481714  0.07754076  0.81804896     0.78770
H880        H  0.52940967  0.00545067  0.87441503     0.79850
H881        H  0.47679103  0.07904880  0.81758269     0.82080
H882        H  0.52938873  0.00440458  0.76392790     0.79680
H883        H  0.56382228  0.02255354  0.91045604     0.42720
H884        H  0.49588284  0.05667257  0.91160864     0.41690
H885        H  0.43654699  0.04690952  0.85368867     0.41370
H886        H  0.43856513  0.05446954  0.78945687     0.39300
H887        H  0.50657101  0.05800478  0.72760867     0.42430
H888        H  0.55350083  0.02808018  0.72687191     0.37220
H889        H  0.61998900  0.03858837  0.79813321     0.43330
H890        H  0.62183245  0.05516141  0.85355736     0.39750
H891        H  0.44032447  0.04960470  0.75910898     0.44670
H892        H  0.58341420  0.03342662  0.72615245     0.43390
H893        H  0.61723520  0.04947812  0.88352499     0.43530
H894        H  0.48477325  0.02810285  0.91079863     0.43890
C895        C  0.67736929  0.36839911  0.95499823     0.03440
C896        C  0.68669157  0.39358644  0.95984137    -0.12710
C897        C  0.70693477  0.40405035  0.94494040     0.00940
C898        C  0.71749081  0.38916829  0.92435370    -0.11240
C899        C  0.70860815  0.36354393  0.91948904     0.03430
C900        C  0.68827674  0.35327247  0.93481447    -0.10660
H901        H  0.67874999  0.40471187  0.97611054     0.09020
H902        H  0.73333353  0.39705043  0.91287207     0.06550
H903        H  0.68122562  0.33357438  0.93127818     0.06400
C904        C  0.85156214  0.37217244  0.72884734     0.03440
C905        C  0.86698231  0.35825071  0.71032695    -0.12710
C906        C  0.88732794  0.37041863  0.69679222     0.00940
C907        C  0.89367757  0.39626658  0.70253480    -0.11240
C908        C  0.88179238  0.40934404  0.72319319     0.03430
C909        C  0.86030736  0.39783312  0.73582539    -0.10660
H910        H  0.86479775  0.33747354  0.70731562     0.09020
H911        H  0.91019702  0.40519329  0.69286744     0.06550
H912        H  0.85165253  0.40882115  0.75160113     0.06400
C913        C  0.78852220  0.30818888  0.79939115     0.02590
C914        C  0.78663070  0.31424989  0.82695493     0.02590
C915        C  0.76473271  0.30354659  0.84063515     0.02590
C916        C  0.75224092  0.28092761  0.83063281     0.02590
C917        C  0.76008727  0.27018726  0.80647766     0.02590
C918        C  0.78016703  0.28244644  0.79219789     0.02590
C919        C  0.65320798  0.18109889  0.73418344     0.03440
C920        C  0.66889121  0.19567438  0.75124708    -0.12710
C921        C  0.69488904  0.20066818  0.74471445     0.00940
C922        C  0.70560081  0.18828160  0.72243863    -0.11240
C923        C  0.68968950  0.17365459  0.70512834     0.03430
C924        C  0.66291246  0.17369486  0.70967931    -0.10660
H925        H  0.66144837  0.20167056  0.77020713     0.09020
H926        H  0.72627506  0.18964684  0.71908539     0.06550
H927        H  0.64989008  0.16418752  0.69604019     0.06400
O928        O  0.73229331  0.99285532  0.60915054    -0.74980
O929        O  0.74504526  0.02095935  0.64114856    -0.53890
C930        C  0.73436822  0.99959250  0.63350078     0.78740
O931        O  0.82733918  0.98847975  0.53098112    -0.59590
O932        O  0.81429401  0.01539079  0.49778625    -0.52610
C933        C  0.82460525  0.99420250  0.50648036     0.70760
O934        O  0.81372622  0.98794923  0.61715514    -0.74140
O935        O  0.79544014  0.01576259  0.64694275    -0.54710
C936        C  0.80634997  0.99402894  0.64042405     0.76760
O937        O  0.73656957  0.99445722  0.52103869    -0.59290
O938        O  0.76132251  0.01925948  0.49338591    -0.52410
C939        C  0.74527218  0.00069169  0.49820166     0.73350
Zr940      Zr  0.74064191  0.01188876  0.56565504     2.54710
O941        O  0.72605390  0.96654852  0.56374953    -0.79850
O942        O  0.69492257  0.02356863  0.56322868    -0.93270
Zr943      Zr  0.81811195  0.00755685  0.57411047     2.64680
O944        O  0.83097203  0.96167550  0.57814201    -0.98230
O945        O  0.86413762  0.01522287  0.58138130    -0.80290
O946        O  0.77670448  0.00972915  0.59421201    -0.83640
O947        O  0.78196600  0.00837443  0.54553455    -2.18350
O948        O  0.74109048  0.10286182  0.51792483    -0.67030
O949        O  0.76568935  0.07688426  0.49168220    -0.51600
C950        C  0.74996965  0.09594300  0.49532149     0.71740
O951        O  0.82854159  0.09752790  0.62015259    -0.59940
O952        O  0.80171403  0.07532598  0.64793289    -0.51920
C953        C  0.81945429  0.09222113  0.64317049     0.73540
O954        O  0.83619507  0.09887861  0.53037261    -0.71340
O955        O  0.81754780  0.07598241  0.49707441    -0.50010
C956        C  0.83229078  0.09437190  0.50569065     0.74920
O957        O  0.73732330  0.11075567  0.60518966    -0.66670
O958        O  0.74839333  0.08294620  0.63853957    -0.53860
C959        C  0.73848924  0.10434968  0.62950327     0.73300
Zr960      Zr  0.74538714  0.08889199  0.56382520     2.77540
O961        O  0.73967978  0.13628919  0.56087756    -0.97420
O962        O  0.69844322  0.08427917  0.56201870    -0.78240
Zr963      Zr  0.82252688  0.08431379  0.57411368     2.70070
O964        O  0.82814685  0.13167892  0.57570657    -0.79480
O965        O  0.86916440  0.07839965  0.57852581    -0.98570
Zr966      Zr  0.77555287  0.04901706  0.61918572     2.21500
Zr967      Zr  0.78790468  0.04722976  0.52020129     2.11130
O968        O  0.78692614  0.08697096  0.54463430    -2.47250
O969        O  0.78097301  0.08750462  0.59353386    -0.79280
O970        O  0.74553782  0.04973065  0.53876687    -0.71470
O971        O  0.81778668  0.04605789  0.60014168    -2.32430
O972        O  0.73882372  0.05116780  0.59060634    -2.28640
O973        O  0.82483384  0.04551996  0.54832954    -0.73230
H974        H  0.78181743  0.99261099  0.53508556     0.78770
H975        H  0.83106822  0.04503515  0.61351203     0.79850
H976        H  0.78870917  0.10221384  0.53354373     0.82080
H977        H  0.72283005  0.05240794  0.60044182     0.79680
H978        H  0.86751605  0.00809825  0.59915519     0.42720
H979        H  0.87466426  0.07080338  0.56153435     0.41690
H980        H  0.81024408  0.13872979  0.57597736     0.41370
H981        H  0.75377415  0.14244505  0.54924684     0.39300
H982        H  0.69469403  0.07987815  0.54346092     0.42430
H983        H  0.68729223  0.01597176  0.57934525     0.37220
H984        H  0.74220599  0.95606605  0.56485774     0.43330
H985        H  0.81844099  0.95184324  0.56716749     0.39750
H986        H  0.72355387  0.13890199  0.55060371     0.44670
H987        H  0.68796901  0.01263075  0.54878598     0.43390
H988        H  0.84771008  0.96019512  0.56877491     0.43530
H989        H  0.87621844  0.09645136  0.57837129     0.43890
C990        C  0.86639844  0.21404884  0.40638940     0.03440
C991        C  0.85900627  0.18889890  0.41659580    -0.12710
C992        C  0.87320618  0.17716542  0.43750036     0.00940
C993        C  0.89649797  0.18885701  0.44490659    -0.11240
C994        C  0.90079926  0.21507264  0.43920998     0.03430
C995        C  0.88538341  0.22784587  0.42075592    -0.10660
H996        H  0.84209059  0.17877241  0.40943662     0.09020
H997        H  0.90932152  0.17903174  0.45865657     0.06550
H998        H  0.88822452  0.24861375  0.41820935     0.06400
C999        C  0.84714455  0.21625903  0.72947523     0.03440
C1000       C  0.86636543  0.22922556  0.71504839    -0.12710
C1001       C  0.87979106  0.21582759  0.69537701     0.00940
C1002       C  0.87430169  0.18947145  0.69054984    -0.11240
C1003       C  0.85617408  0.17563196  0.70566860     0.03430
C1004       C  0.84278081  0.18933931  0.72550333    -0.10660
H1005       H  0.86973365  0.25000107  0.71801117     0.09020
H1006       H  0.88355983  0.18025024  0.67390277     0.06550
H1007       H  0.82811099  0.17963354  0.73712990     0.06400
C1008       C  0.37333292  0.21518732  0.73771321     0.03440
C1009       C  0.39665424  0.20617112  0.74897550    -0.12710
C1010       C  0.41198658  0.18760418  0.73572116     0.00940
C1011       C  0.40479740  0.17951835  0.71054594    -0.11240
C1012       C  0.38143164  0.18776377  0.69941675     0.03430
C1013       C  0.36569105  0.20568450  0.71294390    -0.10660
H1014       H  0.40189807  0.21216081  0.76869963     0.09020
H1015       H  0.41583570  0.16417272  0.70088520     0.06550
H1016       H  0.34705557  0.21126257  0.70477608     0.06400
C1017       C  0.30250815  0.31782974  0.83220379     0.02590
C1018       C  0.28133033  0.32977115  0.81902697     0.02590
C1019       C  0.27283613  0.31970554  0.79469505     0.02590
C1020       C  0.28476718  0.29694849  0.78438083     0.02590
C1021       C  0.30681860  0.28583350  0.79683108     0.02590
C1022       C  0.31451091  0.29498584  0.82190186     0.02590
O1023       O  0.26921271  0.99840776  0.51603669    -0.74980
O1024       O  0.28796955  0.96775197  0.54254673    -0.53890
C1025       C  0.27449324  0.97455537  0.52245842     0.78740
O1026       O  0.35762085  0.08971993  0.51708991    -0.59590
O1027       O  0.33609530  0.11921231  0.54273947    -0.52610
C1028       C  0.34988952  0.11312247  0.52275182     0.70760
O1029       O  0.35335683  0.00205801  0.51251657    -0.74140
O1030       O  0.33800450  0.96868637  0.53740107    -0.54710
C1031       C  0.34819989  0.97763522  0.51623097     0.76760
O1032       O  0.26491545  0.08617451  0.51812817    -0.59290
O1033       O  0.28559660  0.11617136  0.54370335    -0.52410
C1034       C  0.27084611  0.10992272  0.52435252     0.73350
Zr1035     Zr  0.27439489  0.04216845  0.53504174     2.54710
O1036       O  0.26150714  0.04024227  0.48921060    -0.79850
O1037       O  0.22853843  0.04057149  0.54610502    -0.93270
Zr1038     Zr  0.35282606  0.04466680  0.53395049     2.64680
O1039       O  0.36807249  0.04477979  0.48866729    -0.98230
O1040       O  0.39913846  0.04247735  0.54297275    -0.80290
O1041       O  0.31428785  0.01927004  0.53330949    -0.83640
O1042       O  0.31286162  0.06754360  0.53356391    -2.18350
O1043       O  0.26462449  0.08530749  0.62799199    -0.67030
O1044       O  0.28438636  0.11555684  0.60175980    -0.51600
C1045       C  0.26939256  0.10903076  0.62067335     0.71740
O1046       O  0.35676725  0.99832023  0.62942552    -0.59940
O1047       O  0.34218448  0.96748873  0.60071388    -0.51920
C1048       C  0.35273394  0.97430566  0.62246881     0.73540
O1049       O  0.35928148  0.08707062  0.62897621    -0.71340
O1050       O  0.33950875  0.11754376  0.60276329    -0.50010
C1051       C  0.35294325  0.11082126  0.62289880     0.74920
O1052       O  0.26994383  0.99654051  0.62894131    -0.66670
O1053       O  0.28924199  0.96726436  0.60122468    -0.53860
C1054       C  0.27551595  0.97310285  0.62140165     0.73300
Zr1055     Zr  0.27607542  0.04108174  0.61253209     2.77540
O1056       O  0.27365854  0.03999676  0.66028688    -0.97420
O1057       O  0.22908387  0.03835536  0.60901677    -0.78240
Zr1058     Zr  0.35379748  0.04269175  0.61092004     2.70070
O1059       O  0.36744163  0.04298777  0.65670866    -0.79480
O1060       O  0.40010171  0.04124691  0.60195409    -0.98570
Zr1061     Zr  0.31538003  0.99276678  0.57150123     2.21500
Zr1062     Zr  0.31305656  0.09195894  0.57332651     2.11130
O1063       O  0.31424870  0.06658632  0.61259875    -2.47250
O1064       O  0.31548689  0.01715623  0.61129926    -0.79280
O1065       O  0.27379247  0.06746731  0.57409550    -0.71470
O1066       O  0.35493051  0.01732699  0.57171280    -2.32430
O1067       O  0.27505542  0.01571649  0.57329177    -2.28640
O1068       O  0.35378127  0.06985579  0.57296142    -0.73230
H1069       H  0.31205742  0.07836077  0.51806099     0.78770
H1070       H  0.36982887  0.00587873  0.57124271     0.79850
H1071       H  0.31361892  0.07743436  0.62810800     0.82080
H1072       H  0.26056653  0.00374426  0.57336429     0.79680
H1073       H  0.40482028  0.02585177  0.53472771     0.42720
H1074       H  0.40585927  0.05967552  0.60379430     0.41690
H1075       H  0.35102015  0.04309354  0.66674923     0.41370
H1076       H  0.28697773  0.05260508  0.66628905     0.39300
H1077       H  0.22364725  0.05592419  0.60277088     0.42430
H1078       H  0.22258965  0.02340245  0.53931812     0.37220
H1079       H  0.27811558  0.04060476  0.47950360     0.43330
H1080       H  0.35476519  0.05466565  0.47867299     0.39750
H1081       H  0.25689791  0.04839941  0.66466797     0.44670
H1082       H  0.22032664  0.05364007  0.53433095     0.43390
H1083       H  0.38360650  0.05616189  0.48856548     0.43530
H1084       H  0.40768789  0.03214159  0.61734064     0.43890
O1085       O  0.98704320  0.32581373  0.51488403    -0.74980
O1086       O  0.95599671  0.31117514  0.54310847    -0.53890
C1087       C  0.96326661  0.32199467  0.52159091     0.78740
O1088       O  0.07812507  0.23805595  0.52732739    -0.59590
O1089       O  0.10661647  0.26134581  0.55228651    -0.52610
C1090       C  0.10111071  0.24615313  0.53298620     0.70760
O1091       O  0.99501849  0.24323129  0.51722168    -0.74140
O1092       O  0.96092338  0.25934214  0.54028500    -0.54710
C1093       C  0.97079171  0.24858902  0.51966674     0.76760
O1094       O  0.07441111  0.32923119  0.51791505    -0.59290
O1095       O  0.10474159  0.31335312  0.54661766    -0.52410
C1096       C  0.09793432  0.32482799  0.52522825     0.73350
Zr1097     Zr  0.03049230  0.32179813  0.53389174     2.54710
O1098       O  0.03168731  0.32314558  0.48614575    -0.79850
O1099       O  0.02899369  0.36951651  0.53469746    -0.93270
Zr1100     Zr  0.03384428  0.24318712  0.54439052     2.64680
O1101       O  0.03541085  0.21172372  0.50836530    -0.98230
O1102       O  0.03002847  0.20010887  0.56473437    -0.80290
O1103       O  0.00838252  0.28150281  0.53758412    -0.83640
O1104       O  0.05615063  0.28346093  0.53898568    -2.18350
O1105       O  0.07168695  0.34484726  0.62342401    -0.67030
O1106       O  0.10342485  0.32177368  0.60295224    -0.51600
C1107       C  0.09573918  0.33953827  0.61893085     0.71740
O1108       O  0.98563826  0.25016392  0.63754856    -0.59940
O1109       O  0.95624447  0.26105905  0.60591238    -0.51920
C1110       C  0.96224132  0.25271963  0.62897123     0.73540
O1111       O  0.07251112  0.24536048  0.63874575    -0.71340
O1112       O  0.10249593  0.26743017  0.61426416    -0.50010
C1113       C  0.09572376  0.25298871  0.63380281     0.74920
O1114       O  0.98385344  0.33555487  0.62702788    -0.66670
O1115       O  0.95423334  0.31234420  0.60341690    -0.53860
C1116       C  0.96053489  0.32775471  0.62235672     0.73300
Zr1117     Zr  0.02790198  0.33124110  0.61031486     2.77540
O1118       O  0.02665553  0.34154370  0.65702627    -0.97420
O1119       O  0.02275915  0.37760181  0.60007285    -0.78240
Zr1120     Zr  0.02967773  0.25330941  0.62011660     2.70070
O1121       O  0.03103184  0.25320364  0.66784349    -0.79480
O1122       O  0.02683553  0.20566456  0.62094820    -0.98570
Zr1123     Zr  0.98089457  0.28594831  0.57447257     2.21500
Zr1124     Zr  0.07972837  0.28935738  0.57878233     2.11130
O1125       O  0.05333107  0.29319328  0.61688293    -2.47250
O1126       O  0.00460882  0.29159826  0.61400774    -0.79280
O1127       O  0.05481402  0.32833120  0.57284576    -0.71470
O1128       O  0.00542010  0.24650300  0.58089841    -2.32430
O1129       O  0.00339743  0.32669858  0.57107922    -2.28640
O1130       O  0.05799241  0.24836248  0.58356390    -0.73230
H1131       H  0.06699375  0.28255642  0.52363931     0.78770
H1132       H  0.99409661  0.23149815  0.58227528     0.79850
H1133       H  0.06362393  0.29560176  0.63254998     0.82080
H1134       H  0.99153054  0.34120963  0.56898279     0.79680
H1135       H  0.01390941  0.19262072  0.55728015     0.42720
H1136       H  0.04506914  0.19963353  0.62201110     0.41690
H1137       H  0.03480232  0.27164249  0.67260665     0.41370
H1138       H  0.04350615  0.33561364  0.66426866     0.39300
H1139       H  0.03994465  0.38304438  0.59339824     0.42430
H1140       H  0.01031091  0.37389070  0.53358874     0.37220
H1141       H  0.03445693  0.30465341  0.48088361     0.43330
H1142       H  0.04753554  0.21911324  0.49528494     0.39750
H1143       H  0.02723827  0.36091896  0.65790912     0.44670
H1144       H  0.03610264  0.37487335  0.51747215     0.43390
H1145       H  0.04449215  0.19614182  0.51545949     0.43530
H1146       H  0.01949372  0.20156536  0.63841596     0.43890
C1147       C  0.22619604  0.19617786  0.46695675     0.03440
C1148       C  0.20206288  0.20307879  0.47698264    -0.12710
C1149       C  0.18775963  0.22356912  0.46591029     0.00940
C1150       C  0.19783636  0.23723871  0.44423353    -0.11240
C1151       C  0.22235721  0.23046638  0.43415036     0.03430
C1152       C  0.23634015  0.20966960  0.44544737    -0.10660
H1153       H  0.19466736  0.19277523  0.49403471     0.09020
H1154       H  0.18696061  0.25329556  0.43561187     0.06550
H1155       H  0.25514868  0.20426684  0.43772082     0.06400
C1156       C  0.19820229  0.37771161  0.73125971     0.03440
C1157       C  0.19110633  0.40337763  0.73881913    -0.12710
C1158       C  0.17474008  0.41847704  0.72258823     0.00940
C1159       C  0.16804062  0.40869702  0.69797610    -0.11240
C1160       C  0.17102533  0.38210112  0.69211831     0.03430
C1161       C  0.18686900  0.36659819  0.70857886    -0.10660
H1162       H  0.19733807  0.41103649  0.75764112     0.09020
H1163       H  0.15629336  0.42073670  0.68501903     0.06550
H1164       H  0.18972543  0.34596840  0.70443941     0.06400
C1165       C  0.19048636  0.22490718  0.68397037     0.03440
C1166       C  0.20450280  0.23980708  0.70238731    -0.12710
C1167       C  0.23117296  0.23550561  0.70620854     0.00940
C1168       C  0.24363850  0.21502764  0.69281933    -0.11240
C1169       C  0.22966124  0.19945998  0.67508034     0.03430
C1170       C  0.20365210  0.20537636  0.66996113    -0.10660
H1171       H  0.19491101  0.25498863  0.71364200     0.09020
H1172       H  0.26400638  0.21111454  0.69638768     0.06550
H1173       H  0.19368462  0.19453841  0.65475574     0.06400
C1174       C  0.69443921  0.22277113  0.23735108     0.03440
C1175       C  0.68572857  0.19918578  0.24897662    -0.12710
C1176       C  0.67093010  0.18134824  0.23414145     0.00940
C1177       C  0.66602730  0.18664914  0.20778418    -0.11240
C1178       C  0.66964668  0.21188681  0.19761464     0.03430
C1179       C  0.68498708  0.22970268  0.21214849    -0.10660
H1180       H  0.69016772  0.19491740  0.26934086     0.09020
H1181       H  0.65504535  0.17238158  0.19654647     0.06550
H1182       H  0.68865242  0.24921485  0.20467457     0.06400
C1183       C  0.19312713  0.66986615  0.21727373     0.03440
C1184       C  0.21034539  0.68795235  0.22874889    -0.12710
C1185       C  0.20418233  0.70001173  0.25281932     0.00940
C1186       C  0.18076799  0.69375106  0.26545833    -0.11240
C1187       C  0.16334536  0.67609526  0.25384618     0.03430
C1188       C  0.16937034  0.66483565  0.22956926    -0.10660
H1189       H  0.22914157  0.69135344  0.21992691     0.09020
H1190       H  0.17678670  0.70149917  0.28485341     0.06550
H1191       H  0.15648198  0.65015632  0.22136711     0.06400
C1192       C  0.34647744  0.41408152  0.20214856     0.03440
C1193       C  0.36795247  0.40413629  0.18855438    -0.12710
C1194       C  0.37598797  0.37807403  0.19168397     0.00940
C1195       C  0.36307879  0.36198546  0.20978616    -0.11240
C1196       C  0.34226345  0.37187087  0.22453526     0.03430
C1197       C  0.33412889  0.39799901  0.22078130    -0.10660
H1198       H  0.37784540  0.41643391  0.17442834     0.09020
H1199       H  0.36904283  0.34173268  0.21224529     0.06550
H1200       H  0.31776864  0.40547795  0.23180337     0.06400
C1201       C  0.36363999  0.17106258  0.42841453     0.03440
C1202       C  0.38071167  0.15606935  0.41316504    -0.12710
C1203       C  0.38334068  0.16055881  0.38628065     0.00940
C1204       C  0.36876858  0.18034070  0.37418412    -0.11240
C1205       C  0.35149978  0.19556985  0.38897852     0.03430
C1206       C  0.34930541  0.19130227  0.41620674    -0.10660
H1207       H  0.39170730  0.14025648  0.42210523     0.09020
H1208       H  0.37059746  0.18365012  0.35324169     0.06550
H1209       H  0.33606251  0.20323737  0.42758511     0.06400
C1210       C  0.16067252  0.36241592  0.44217345     0.03440
C1211       C  0.14668127  0.38403992  0.43290882    -0.12710
C1212       C  0.15032562  0.39329262  0.40732573     0.00940
C1213       C  0.16967706  0.38207438  0.39162369    -0.11240
C1214       C  0.18456637  0.36098442  0.40109481     0.03430
C1215       C  0.17982463  0.35102641  0.42636230    -0.10660
H1216       H  0.13133086  0.39228419  0.44488223     0.09020
H1217       H  0.17241815  0.38899201  0.37169497     0.06550
H1218       H  0.18983184  0.33352508  0.43304075     0.06400
C1219       C  0.28762556  0.30483553  0.29790867     0.02590
C1220       C  0.26556690  0.31602018  0.30992581     0.02590
C1221       C  0.25566294  0.30512070  0.33339045     0.02590
C1222       C  0.26717202  0.28223833  0.34403314     0.02590
C1223       C  0.28899976  0.27088176  0.33182518     0.02590
C1224       C  0.29835161  0.28139050  0.30804260     0.02590
C1225       C  0.20302118  0.34748537  0.38349230     0.00150
C1226       C  0.19377313  0.33669359  0.35990648    -0.11720
C1227       C  0.21030606  0.32284084  0.34309500     0.02390
C1228       C  0.23675676  0.32002160  0.34969114     0.00070
C1229       C  0.24599082  0.33116416  0.37313803    -0.11660
C1230       C  0.22941156  0.34465489  0.39007735     0.02270
H1231       H  0.17339568  0.33861070  0.35491964     0.15250
H1232       H  0.26634606  0.32922771  0.37822007     0.15250
C1233       C  0.24003916  0.35583835  0.41380669     0.36910
C1234       C  0.19934570  0.31125229  0.31977078     0.36810
N1235       N  0.24859717  0.36476556  0.43282580    -0.43440
N1236       N  0.19007274  0.30216803  0.30117222    -0.43430
C1237       C  0.33503115  0.21510612  0.37537660     0.00150
C1238       C  0.31317802  0.20642326  0.36139184    -0.11720
C1239       C  0.29796680  0.22404280  0.34681340     0.02390
C1240       C  0.30471196  0.25081734  0.34604308     0.00070
C1241       C  0.32667082  0.25941136  0.35992751    -0.11660
C1242       C  0.34178882  0.24183200  0.37456062     0.02270
H1243       H  0.30816994  0.18576992  0.36168906     0.15250
H1244       H  0.33187978  0.28001154  0.35943990     0.15250
C1245       C  0.36439775  0.25150668  0.38818386     0.36910
C1246       C  0.27598668  0.21409282  0.33241619     0.36810
N1247       N  0.38254668  0.25924958  0.39908262    -0.43440
N1248       N  0.25850872  0.20583087  0.32080270    -0.43430
C1249       C  0.30210489  0.32080881  0.27827394     0.00150
C1250       C  0.31531867  0.34301321  0.28758638    -0.11720
C1251       C  0.32831601  0.35987248  0.27043717     0.02390
C1252       C  0.32851073  0.35452238  0.24330000     0.00070
C1253       C  0.31544173  0.33220695  0.23389608    -0.11660
C1254       C  0.30200374  0.31553527  0.25109760     0.02270
H1255       H  0.31538765  0.34720478  0.30846774     0.15250
H1256       H  0.31531737  0.32812757  0.21299876     0.15250
C1257       C  0.28754268  0.29386049  0.24033166     0.36910
C1258       C  0.34175625  0.38224339  0.28122062     0.36810
N1259       N  0.27584284  0.27659877  0.23155544    -0.43440
N1260       N  0.35250623  0.40018803  0.28986719    -0.43430
C1261       C  0.23352783  0.24491124  0.41171147     0.00150
C1262       C  0.22088234  0.24375612  0.38737373    -0.11720
C1263       C  0.23176679  0.25548863  0.36517219     0.02390
C1264       C  0.25533805  0.26935408  0.36732927     0.00070
C1265       C  0.26778989  0.27090066  0.39177811    -0.11660
C1266       C  0.25726606  0.25853535  0.41384724     0.02270
H1267       H  0.20292266  0.23285824  0.38554691     0.15250
H1268       H  0.28583518  0.28164150  0.39353838     0.15250
C1269       C  0.27108527  0.26017256  0.43847558     0.36910
C1270       C  0.21916028  0.25173762  0.34013558     0.36810
N1271       N  0.28221306  0.26133077  0.45819743    -0.43440
N1272       N  0.20917965  0.24822661  0.32007463    -0.43430
C1273       C  0.11592673  0.35329847  0.63472536     0.00150
C1274       C  0.14183759  0.34409867  0.63421701    -0.11720
C1275       C  0.16032868  0.35287631  0.65254079     0.02390
C1276       C  0.15296882  0.37097604  0.67206777     0.00070
C1277       C  0.12724992  0.38036812  0.67210332    -0.11660
C1278       C  0.10931886  0.37285330  0.65316580     0.02270
H1279       H  0.14755893  0.32929582  0.62008397     0.15250
H1280       H  0.12093833  0.39407130  0.68709024     0.15250
C1281       C  0.08458281  0.38622513  0.65316927     0.36910
C1282       C  0.18651924  0.34305811  0.65077614     0.36810
N1283       N  0.06504334  0.39742220  0.65317097    -0.43440
N1284       N  0.20749106  0.33507905  0.64934994    -0.43430
C1285       C  0.11817555  0.33166562  0.50627254     0.00150
C1286       C  0.11735765  0.31912098  0.48182598    -0.11720
C1287       C  0.13344210  0.32716044  0.46142939     0.02390
C1288       C  0.15030385  0.34855969  0.46523216     0.00070
C1289       C  0.15234866  0.36007447  0.49021757    -0.11660
C1290       C  0.13664883  0.35141945  0.51094705     0.02270
H1291       H  0.10340504  0.30356796  0.47840941     0.15250
H1292       H  0.16515045  0.37668102  0.49309655     0.15250
C1293       C  0.13848659  0.36416628  0.53618131     0.36910
C1294       C  0.13071170  0.31463940  0.43612226     0.36810
N1295       N  0.13994194  0.37424760  0.55648797    -0.43440
N1296       N  0.12858669  0.30468095  0.41581690    -0.43430
C1297       C  0.16294759  0.23105172  0.67718536     0.00150
C1298       C  0.15472774  0.25737414  0.67672847    -0.11720
C1299       C  0.13102285  0.26425148  0.66537855     0.02390
C1300       C  0.11635435  0.24520474  0.65209995     0.00070
C1301       C  0.12266958  0.21872694  0.65517133    -0.11660
C1302       C  0.14524281  0.21145420  0.66866345     0.02270
H1303       H  0.16690386  0.27280793  0.68454507     0.15250
H1304       H  0.11029738  0.20381199  0.64659590     0.15250
C1305       C  0.14942039  0.18389881  0.67381932     0.36910
C1306       C  0.12077891  0.29017063  0.66985415     0.36810
N1307       N  0.15274477  0.16182701  0.67798805    -0.43440
N1308       N  0.11185227  0.31036157  0.67490319    -0.43430
C1309       C  0.12237143  0.23993622  0.51460629     0.00150
C1310       C  0.14031935  0.25987236  0.50888326    -0.11720
C1311       C  0.16054345  0.25576769  0.49115741     0.02390
C1312       C  0.16333314  0.23110325  0.47903189     0.00070
C1313       C  0.14487281  0.21144846  0.48397193    -0.11660
C1314       C  0.12448403  0.21563708  0.50156453     0.02270
H1315       H  0.13865835  0.27878762  0.51844500     0.15250
H1316       H  0.14717336  0.19229861  0.47497128     0.15250
C1317       C  0.10730205  0.19406471  0.50724460     0.36910
C1318       C  0.17893121  0.27668556  0.48695125     0.36810
N1319       N  0.09380594  0.17654553  0.51180262    -0.43440
N1320       N  0.19357762  0.29350549  0.48351445    -0.43430
C1321       C  0.26054192  0.13191656  0.50821531     0.00150
C1322       C  0.26112612  0.15737640  0.51896953    -0.11720
C1323       C  0.25110442  0.17877949  0.50524870     0.02390
C1324       C  0.24066367  0.17510612  0.48002294     0.00070
C1325       C  0.24116198  0.15024967  0.46851854    -0.11660
C1326       C  0.25121466  0.12870032  0.48218499     0.02270
H1327       H  0.26905617  0.16067639  0.53841268     0.15250
H1328       H  0.23323520  0.14762558  0.44894022     0.15250
C1329       C  0.25242260  0.10409437  0.46830335     0.36910
C1330       C  0.25121805  0.20428689  0.51761548     0.36810
N1331       N  0.25328215  0.08483710  0.45633144    -0.43440
N1332       N  0.25121712  0.22473088  0.52748592    -0.43430
C1333       C  0.24140676  0.17659894  0.66163527     0.00150
C1334       C  0.23763621  0.17411702  0.63444302    -0.11720
C1335       C  0.24500248  0.15137981  0.62123508     0.02390
C1336       C  0.25743243  0.13093693  0.63499054     0.00070
C1337       C  0.26110066  0.13313033  0.66218475    -0.11660
C1338       C  0.25306479  0.15570574  0.67563739     0.02270
H1339       H  0.22816092  0.18974494  0.62357020     0.15250
H1340       H  0.27045804  0.11733587  0.67285468     0.15250
C1341       C  0.25599287  0.15644899  0.70382577     0.36910
C1342       C  0.23791671  0.14866952  0.59393485     0.36810
N1343       N  0.25825056  0.15705888  0.72642938    -0.43440
N1344       N  0.23157334  0.14625084  0.57227532    -0.43430
C1345       C  0.35413788  0.13369741  0.50295372     0.00150
C1346       C  0.33225536  0.14313304  0.48953180    -0.11720
C1347       C  0.33473630  0.15721829  0.46610459     0.02390
C1348       C  0.35967478  0.16305138  0.45627850     0.00070
C1349       C  0.38153930  0.15603409  0.47148251    -0.11660
C1350       C  0.37896067  0.14088461  0.49429985     0.02270
H1351       H  0.31313531  0.13733985  0.49603372     0.15250
H1352       H  0.40081244  0.16069712  0.46442620     0.15250
C1353       C  0.40194220  0.13200348  0.50789005     0.36910
C1354       C  0.31153370  0.16240936  0.45106767     0.36810
N1355       N  0.42033642  0.12484462  0.51882211    -0.43440
N1356       N  0.29310915  0.16646533  0.43871073    -0.43430
C1357       C  0.27100478  0.28187101  0.76379985     0.00150
C1358       C  0.27902358  0.28302980  0.73755508    -0.11720
C1359       C  0.26645277  0.26790946  0.71835101     0.02390
C1360       C  0.24549184  0.25158211  0.72550116     0.00070
C1361       C  0.23750949  0.25067665  0.75170744    -0.11660
C1362       C  0.25013354  0.26546726  0.77082920     0.02270
H1363       H  0.29510698  0.29559132  0.73218322     0.15250
H1364       H  0.22151326  0.23806961  0.75728426     0.15250
C1365       C  0.24163880  0.26301813  0.79770385     0.36910
C1366       C  0.27490209  0.26993973  0.69144010     0.36810
N1367       N  0.23464146  0.26097193  0.81916688    -0.43440
N1368       N  0.28167021  0.27159904  0.66985729    -0.43430
C1369       C  0.25338195  0.33449131  0.77854124     0.00150
C1370       C  0.22677958  0.32898058  0.78061560    -0.11720
C1371       C  0.20850012  0.34237797  0.76498249     0.02390
C1372       C  0.21668062  0.36232456  0.74764933     0.00070
C1373       C  0.24320911  0.36793216  0.74577179    -0.11660
C1374       C  0.26151709  0.35395089  0.76063646     0.02270
H1375       H  0.22030871  0.31409396  0.79427388     0.15250
H1376       H  0.24966875  0.38304755  0.73230779     0.15250
C1377       C  0.28864856  0.35968984  0.75690848     0.36910
C1378       C  0.18149506  0.33534844  0.76693626     0.36810
N1379       N  0.31036807  0.36427007  0.75366977    -0.43440
N1380       N  0.15984215  0.32961423  0.76830439    -0.43430
C1381       C  0.35596858  0.23276770  0.75290761     0.00150
C1382       C  0.36486316  0.25774999  0.75991764    -0.11720
C1383       C  0.34906502  0.27508518  0.77402284     0.02390
C1384       C  0.32400092  0.26728144  0.78209888     0.00070
C1385       C  0.31526167  0.24207244  0.77538995    -0.11660
C1386       C  0.33087924  0.22494644  0.76073954     0.02270
H1387       H  0.38406176  0.26391986  0.75386699     0.15250
H1388       H  0.29618805  0.23574249  0.78154466     0.15250
C1389       C  0.32098477  0.19922986  0.75447087     0.36910
C1390       C  0.35880138  0.30110605  0.77922638     0.36810
N1391       N  0.31313249  0.17860828  0.74933704    -0.43440
N1392       N  0.36679965  0.32190307  0.78329934    -0.43430
C1393       C  0.37108214  0.17184279  0.67768812     0.00150
C1394       C  0.35351147  0.15205316  0.68436947    -0.11720
C1395       C  0.34795484  0.13181404  0.66684509     0.02390
C1396       C  0.35938808  0.13166693  0.64172066     0.00070
C1397       C  0.37591679  0.15222444  0.63439869    -0.11660
C1398       C  0.38234026  0.17197311  0.65246389     0.02270
H1399       H  0.34538839  0.15150975  0.70400344     0.15250
H1400       H  0.38448176  0.15231019  0.61497231     0.15250
C1401       C  0.40109269  0.19162210  0.64513934     0.36910
C1402       C  0.33092899  0.11107577  0.67541353     0.36810
N1403       N  0.41619976  0.20732247  0.63930384    -0.43440
N1404       N  0.31750978  0.09439812  0.68257702    -0.43430
C1405       C  0.89906951  0.22909031  0.67867518     0.00150
C1406       C  0.92203751  0.23818685  0.69011419    -0.11720
C1407       C  0.94270169  0.24658941  0.67447051     0.02390
C1408       C  0.94058165  0.24556921  0.64671141     0.00070
C1409       C  0.91684137  0.23793948  0.63547572    -0.11660
C1410       C  0.89617408  0.22986954  0.65115579     0.02270
H1411       H  0.92412031  0.23793250  0.71131797     0.15250
H1412       H  0.91452302  0.23768467  0.61430738     0.15250
C1413       C  0.87219805  0.22224849  0.63858605     0.36910
C1414       C  0.96538730  0.25669231  0.68764775     0.36810
N1415       N  0.85295597  0.21612626  0.62861028    -0.43440
N1416       N  0.98328862  0.26491653  0.69860731    -0.43430
C1417       C  0.91868329  0.22942318  0.45633852     0.00150
C1418       C  0.94515893  0.22531169  0.45311186    -0.11720
C1419       C  0.96266292  0.23238922  0.47275975     0.02390
C1420       C  0.95342357  0.24278506  0.49697775     0.00070
C1421       C  0.92679192  0.24852694  0.49916453    -0.11660
C1422       C  0.90952015  0.24228973  0.47893010     0.02270
H1423       H  0.95207875  0.21576137  0.43540774     0.15250
H1424       H  0.91921758  0.25742122  0.51689754     0.15250
C1425       C  0.88221565  0.24754156  0.48250572     0.36910
C1426       C  0.98975020  0.22943252  0.46642324     0.36810
N1427       N  0.86030615  0.25152196  0.48536184    -0.43440
N1428       N  0.01115872  0.22740175  0.46001174    -0.43430
C1429       C  0.84838660  0.14867936  0.69717707     0.00150
C1430       C  0.82206562  0.14153953  0.69801889    -0.11720
C1431       C  0.81285179  0.12037708  0.68329987     0.02390
C1432       C  0.82955536  0.10767873  0.66542357     0.00070
C1433       C  0.85623359  0.11235887  0.66715396    -0.11660
C1434       C  0.86586313  0.13160198  0.68411317     0.02270
H1435       H  0.80818189  0.15319928  0.70886423     0.15250
H1436       H  0.86950487  0.10122307  0.65496554     0.15250
C1437       C  0.89361310  0.13342834  0.68758474     0.36910
C1438       C  0.78622465  0.11257996  0.68679217     0.36810
N1439       N  0.91584322  0.13480454  0.69039525    -0.43440
N1440       N  0.76515526  0.10600076  0.69081750    -0.43430
C1441       C  0.86309576  0.15513123  0.45434047     0.00150
C1442       C  0.85041282  0.13339283  0.44316314    -0.11720
C1443       C  0.84100036  0.11265887  0.45894017     0.02390
C1444       C  0.84430429  0.11330583  0.48667317     0.00070
C1445       C  0.85750326  0.13473245  0.49746367    -0.11660
C1446       C  0.86620118  0.15548712  0.48215624     0.02270
H1447       H  0.84795665  0.13247197  0.42203824     0.15250
H1448       H  0.86034463  0.13605939  0.51853589     0.15250
C1449       C  0.87729067  0.17711666  0.49664894     0.36910
C1450       C  0.82831282  0.09111256  0.44589880     0.36810
N1451       N  0.88645608  0.19355592  0.50924910    -0.43440
N1452       N  0.81836921  0.07386752  0.43511864    -0.43430
C1453       C  0.70111054  0.15617925  0.68434052     0.00150
C1454       C  0.72334068  0.16458147  0.67064858    -0.11720
C1455       C  0.73586455  0.14812177  0.65254892     0.02390
C1456       C  0.72647506  0.12255871  0.64819774     0.00070
C1457       C  0.70440774  0.11413077  0.66126084    -0.11660
C1458       C  0.69140546  0.13048122  0.67878027     0.02270
H1459       H  0.73099621  0.18408446  0.67398394     0.15250
H1460       H  0.69701063  0.09457037  0.65736288     0.15250
C1461       C  0.66816532  0.11941644  0.68987999     0.36910
C1462       C  0.75892150  0.15738877  0.63950867     0.36810
N1463       N  0.64931562  0.10967597  0.69734254    -0.43440
N1464       N  0.77749044  0.16471252  0.62913756    -0.43430
C1465       C  0.79740778  0.26505661  0.77628205     0.00150
C1466       C  0.78795915  0.25328968  0.75319182    -0.11720
C1467       C  0.80361428  0.23656129  0.73830942     0.02390
C1468       C  0.82944687  0.23175451  0.74612551     0.00070
C1469       C  0.83892425  0.24320537  0.76917836    -0.11660
C1470       C  0.82304925  0.25934126  0.78452513     0.02270
H1471       H  0.76843578  0.25759900  0.74652352     0.15250
H1472       H  0.85871630  0.23929369  0.77530558     0.15250
C1473       C  0.83328078  0.26879009  0.80916887     0.36910
C1474       C  0.79297106  0.22508317  0.71471105     0.36810
N1475       N  0.84168405  0.27596089  0.82898768    -0.43440
N1476       N  0.78445129  0.21575861  0.69586461    -0.43430
C1477       C  0.74291078  0.25076688  0.79298108     0.00150
C1478       C  0.72030909  0.26054119  0.78107760    -0.11720
C1479       C  0.70437975  0.24442259  0.76576597     0.02390
C1480       C  0.71098061  0.21781852  0.76189315     0.00070
C1481       C  0.73328611  0.20776949  0.77428728    -0.11660
C1482       C  0.74908322  0.22390920  0.79000993     0.02270
H1483       H  0.71547426  0.28115633  0.78320740     0.15250
H1484       H  0.73840352  0.18730844  0.77158445     0.15250
C1485       C  0.77195810  0.21271484  0.80191396     0.36910
C1486       C  0.68199138  0.25600271  0.75319230     0.36810
N1487       N  0.79039203  0.20354153  0.81112862    -0.43440
N1488       N  0.66406123  0.26529125  0.74310615    -0.43430
C1489       C  0.94030756  0.33642530  0.64131823     0.00150
C1490       C  0.94862975  0.34351789  0.66664569    -0.11720
C1491       C  0.93133462  0.35298604  0.68534168     0.02390
C1492       C  0.90482698  0.35567024  0.67906996     0.00070
C1493       C  0.89596891  0.34727137  0.65438402    -0.11660
C1494       C  0.91342942  0.33759569  0.63549308     0.02270
H1495       H  0.96894273  0.34188472  0.67198327     0.15250
H1496       H  0.87559155  0.34933552  0.64948096     0.15250
C1497       C  0.90332054  0.33018393  0.61011194     0.36910
C1498       C  0.94150924  0.36035623  0.71074384     0.36810
N1499       N  0.89517463  0.32419598  0.58978806    -0.43440
N1500       N  0.94993750  0.36629488  0.73095238    -0.43430
C1501       C  0.82902033  0.35869253  0.74299037     0.00150
C1502       C  0.81717891  0.36991960  0.76534748    -0.11720
C1503       C  0.80029508  0.35538269  0.78157364     0.02390
C1504       C  0.79795470  0.32769945  0.77808844     0.00070
C1505       C  0.80368048  0.31921330  0.75235739    -0.11660
C1506       C  0.81828630  0.33439017  0.73477558     0.02270
H1507       H  0.82075849  0.39004731  0.77069408     0.15250
H1508       H  0.79583531  0.30131918  0.74485248     0.15250
C1509       C  0.81920209  0.32544762  0.70787080     0.36910
C1510       C  0.78718171  0.36965746  0.80212299     0.36810
N1511       N  0.81969932  0.31808745  0.68637759    -0.43440
N1512       N  0.77770306  0.38209842  0.81851509    -0.43430
C1513       C  0.72187582  0.34722259  0.89941046     0.00150
C1514       C  0.72248071  0.35578605  0.87322261    -0.11720
C1515       C  0.73583099  0.34143858  0.85399321     0.02390
C1516       C  0.75058258  0.31914879  0.86111241     0.00070
C1517       C  0.74804120  0.30951660  0.88685786    -0.11660
C1518       C  0.73429242  0.32343443  0.90601478     0.02270
H1519       H  0.71174187  0.37323855  0.86764126     0.15250
H1520       H  0.75641023  0.29077134  0.89200622     0.15250
C1521       C  0.73365254  0.31308068  0.93239497     0.36910
C1522       C  0.73130644  0.34787246  0.82676505     0.36810
N1523       N  0.73308199  0.30473006  0.95351469    -0.43440
N1524       N  0.72714928  0.35261841  0.80492997    -0.43430
C1525       C  0.63246183  0.16432326  0.74481630     0.00150
C1526       C  0.60690280  0.17326846  0.74780010    -0.11720
C1527       C  0.58726490  0.15586916  0.75592990     0.02390
C1528       C  0.59293775  0.12874573  0.75889359     0.00070
C1529       C  0.61855741  0.12015523  0.75498641    -0.11660
C1530       C  0.63834105  0.13785432  0.75004286     0.02270
H1531       H  0.60247327  0.19379135  0.74441710     0.15250
H1532       H  0.62383316  0.09986459  0.75864400     0.15250
C1533       C  0.66484876  0.12861861  0.75188060     0.36910
C1534       C  0.56213075  0.16655525  0.76226833     0.36810
N1535       N  0.68604279  0.12127109  0.75343292    -0.43440
N1536       N  0.54221077  0.17540806  0.76784003    -0.43430
C1537       C  0.46653245  0.13231743  0.76615781     0.00150
C1538       C  0.44260694  0.13571582  0.77862713    -0.11720
C1539       C  0.42535668  0.15524519  0.77042095     0.02390
C1540       C  0.43211733  0.17192198  0.74935152     0.00070
C1541       C  0.45659673  0.16907281  0.73753126    -0.11660
C1542       C  0.47381498  0.14940838  0.74578959     0.02270
H1543       H  0.43714820  0.12260842  0.79444573     0.15250
H1544       H  0.46165516  0.18134707  0.72092122     0.15250
C1545       C  0.49800903  0.14597743  0.73201946     0.36910
C1546       C  0.40008890  0.15632346  0.78257056     0.36810
N1547       N  0.51731235  0.14307824  0.72084175    -0.43440
N1548       N  0.37982243  0.15717516  0.79224378    -0.43430
C1549       C  0.73357938  0.26606671  0.84726138     0.00150
C1550       C  0.70736145  0.27336789  0.84799882    -0.11720
C1551       C  0.68989815  0.26006602  0.86436824     0.02390
C1552       C  0.69860978  0.23888795  0.88000791     0.00070
C1553       C  0.72473951  0.23147833  0.87903648    -0.11660
C1554       C  0.74225776  0.24503534  0.86307948     0.02270
H1555       H  0.70066573  0.28962782  0.83602486     0.15250
H1556       H  0.73155655  0.21541660  0.89121736     0.15250
C1557       C  0.76932487  0.23786068  0.86417213     0.36910
C1558       C  0.66312409  0.26833470  0.86473207     0.36810
N1559       N  0.79105857  0.23227798  0.86524193    -0.43440
N1560       N  0.64165725  0.27496852  0.86506629    -0.43430
C1561       C  0.59900100  0.12932847  0.87334973     0.00150
C1562       C  0.60566426  0.12817331  0.90009058    -0.11720
C1563       C  0.62460373  0.14494946  0.91078418     0.02390
C1564       C  0.63632008  0.16461448  0.89490179     0.00070
C1565       C  0.63010020  0.16493167  0.86812790    -0.11660
C1566       C  0.61275942  0.14692028  0.85734845     0.02270
H1567       H  0.59656305  0.11360566  0.91254758     0.15250
H1568       H  0.63899312  0.17916639  0.85517751     0.15250
C1569       C  0.61314619  0.14433618  0.82953107     0.36910
C1570       C  0.63234709  0.14051070  0.93768508     0.36810
N1571       N  0.61583663  0.14242459  0.80723028    -0.43440
N1572       N  0.63840004  0.13693303  0.95928987    -0.43430
C1573       C  0.37055249  0.25194492  0.86958345     0.00150
C1574       C  0.34736376  0.24000074  0.86151896    -0.11720
C1575       C  0.32902518  0.25366939  0.84624744     0.02390
C1576       C  0.33400626  0.27967241  0.83786686     0.00070
C1577       C  0.35751363  0.29131149  0.84538581    -0.11660
C1578       C  0.37541138  0.27800246  0.86140965     0.02270
H1579       H  0.34319081  0.22015102  0.86789228     0.15250
H1580       H  0.36187133  0.31104403  0.83888020     0.15250
C1581       C  0.39872002  0.29170375  0.86866921     0.36910
C1582       C  0.30477445  0.24084651  0.84042026     0.36810
N1583       N  0.41710067  0.30357646  0.87386225    -0.43440
N1584       N  0.28541569  0.23031879  0.83591323    -0.43430
C1585       C  0.43439285  0.17773275  0.88528515     0.00150
C1586       C  0.42254066  0.15615354  0.87299113    -0.11720
C1587       C  0.43725513  0.13438823  0.86464498     0.02390
C1588       C  0.46448194  0.13399596  0.86835170     0.00070
C1589       C  0.47633593  0.15582175  0.88003001    -0.11660
C1590       C  0.46170120  0.17740915  0.88855329     0.02270
H1591       H  0.40170118  0.15619742  0.87010048     0.15250
H1592       H  0.49722414  0.15598710  0.88258761     0.15250
C1593       C  0.47540402  0.19931097  0.90000002     0.36910
C1594       C  0.42407255  0.11331389  0.85123670     0.36810
N1595       N  0.48633486  0.21680196  0.90932891    -0.43440
N1596       N  0.41339780  0.09658336  0.84033484    -0.43430
C1597       C  0.31566130  0.26502787  0.29154906     0.00150
C1598       C  0.30455931  0.24343084  0.27866301    -0.11720
C1599       C  0.31939447  0.22733560  0.26233860     0.02390
C1600       C  0.34581386  0.23292299  0.25856389     0.00070
C1601       C  0.35708230  0.25432663  0.27169071    -0.11660
C1602       C  0.34225505  0.27024541  0.28835665     0.02270
H1603       H  0.28404616  0.23945771  0.28103094     0.15250
H1604       H  0.37751291  0.25849835  0.26895025     0.15250
C1605       C  0.35471907  0.29143302  0.30222535     0.36910
C1606       C  0.30695600  0.20574893  0.24900619     0.36810
N1607       N  0.36476606  0.30837246  0.31340537    -0.43440
N1608       N  0.29698424  0.18846184  0.23829764    -0.43430
C1609       C  0.63950180  0.23664621  0.95803040     0.00150
C1610       C  0.61256203  0.23469230  0.95673645    -0.11720
C1611       C  0.59737519  0.23826575  0.97872941     0.02390
C1612       C  0.60839122  0.24880993  0.00213639     0.00070
C1613       C  0.63533708  0.25365543  0.00258627    -0.11660
C1614       C  0.65106886  0.24678378  0.98100677     0.02270
H1615       H  0.60345991  0.22752075  0.93886113     0.15250
H1616       H  0.64422435  0.26198497  0.01998913     0.15250
C1617       C  0.67881776  0.24942791  0.98316936     0.36910
C1618       C  0.57114976  0.22850914  0.97638311     0.36810
N1619       N  0.70109486  0.25154062  0.98485529    -0.43440
N1620       N  0.55060141  0.21973265  0.97400711    -0.43430
C1621       C  0.43985762  0.25666892  0.00468130     0.00150
C1622       C  0.44250846  0.27257717  0.98246223    -0.11720
C1623       C  0.43195668  0.26523728  0.95832605     0.02390
C1624       C  0.41703776  0.24215758  0.95628038     0.00070
C1625       C  0.41301496  0.22691385  0.97901670    -0.11660
C1626       C  0.42465955  0.23380872  0.00309051     0.02270
H1627       H  0.45511256  0.28960008  0.98338575     0.15250
H1628       H  0.40209240  0.20881512  0.97756244     0.15250
C1629       C  0.42231039  0.21635645  0.02525355     0.36910
C1630       C  0.44041141  0.27953357  0.93550711     0.36810
N1631       N  0.42048795  0.20226554  0.04297075    -0.43440
N1632       N  0.44839969  0.29094386  0.91766876    -0.43430
C1633       C  0.44009299  0.35004461  0.14528655     0.00150
C1634       C  0.41897751  0.36246492  0.13311516    -0.11720
C1635       C  0.39775633  0.37115485  0.14772647     0.02390
C1636       C  0.39749254  0.36772984  0.17530176     0.00070
C1637       C  0.41836854  0.35472684  0.18743413    -0.11660
C1638       C  0.43951567  0.34574250  0.17266977     0.02270
H1639       H  0.41898137  0.36522752  0.11198712     0.15250
H1640       H  0.41818210  0.35164574  0.20850448     0.15250
C1641       C  0.45954793  0.33083824  0.18579894     0.36910
C1642       C  0.37615930  0.38269426  0.13371822     0.36810
N1643       N  0.47545581  0.31866783  0.19629053    -0.43440
N1644       N  0.35892072  0.39203865  0.12250047    -0.43430
C1645       C  0.40469347  0.22952152  0.18241441     0.00150
C1646       C  0.39776347  0.23050883  0.15581804    -0.11720
C1647       C  0.41498774  0.24084630  0.13720118     0.02390
C1648       C  0.43972073  0.24974117  0.14531688     0.00070
C1649       C  0.44602342  0.24951896  0.17213125    -0.11660
C1650       C  0.42874656  0.23970090  0.19062806     0.02270
H1651       H  0.37926737  0.22255596  0.14955639     0.15250
H1652       H  0.46466464  0.25690413  0.17869250     0.15250
C1653       C  0.43640200  0.23955567  0.21795200     0.36910
C1654       C  0.40726185  0.24100362  0.10994691     0.36810
N1655       N  0.44245666  0.23945864  0.23984491    -0.43440
N1656       N  0.40096438  0.24126983  0.08812532    -0.43430
C1657       C  0.65230441  0.22007630  0.17535373     0.00150
C1658       C  0.62654468  0.21090399  0.17575399    -0.11720
C1659       C  0.60860034  0.21764094  0.15646565     0.02390
C1660       C  0.61536921  0.23582678  0.13667398     0.00070
C1661       C  0.64154470  0.24398852  0.13518666    -0.11660
C1662       C  0.65993746  0.23628301  0.15425718     0.02270
H1663       H  0.61990233  0.19857703  0.19171397     0.15250
H1664       H  0.64743475  0.25755208  0.11993873     0.15250
C1665       C  0.68626684  0.24542842  0.15175465     0.36910
C1666       C  0.58336730  0.20542643  0.15802892     0.36810
N1667       N  0.70736065  0.25285326  0.14973399    -0.43440
N1668       N  0.56331260  0.19537923  0.15942619    -0.43430
C1669       C  0.61649014  0.34738340  0.00858498     0.00150
C1670       C  0.64234524  0.33968537  0.01358151    -0.11720
C1671       C  0.66228656  0.34531209  0.99580639     0.02390
C1672       C  0.65661441  0.35834489  0.97213209     0.00070
C1673       C  0.63112890  0.36598779  0.96684268    -0.11660
C1674       C  0.61114696  0.36090039  0.98467913     0.02270
H1675       H  0.64721594  0.32942231  0.03157790     0.15250
H1676       H  0.62699080  0.37682716  0.94896215     0.15250
C1677       C  0.58580542  0.37068900  0.97762986     0.36910
C1678       C  0.68861603  0.33848865  0.00270146     0.36810
N1679       N  0.56595028  0.37917887  0.97123652    -0.43440
N1680       N  0.70975464  0.33321830  0.00828285    -0.43430
C1681       C  0.61741345  0.12003343  0.25267563     0.00150
C1682       C  0.60977889  0.14648853  0.25352931    -0.11720
C1683       C  0.62779649  0.16673857  0.25050955     0.02390
C1684       C  0.65421547  0.16093921  0.24607099     0.00070
C1685       C  0.66220035  0.13464406  0.24598385    -0.11660
C1686       C  0.64420496  0.11424093  0.24968201     0.02270
H1687       H  0.58957413  0.15148866  0.25667601     0.15250
H1688       H  0.68231760  0.13001117  0.24187998     0.15250
C1689       C  0.65376230  0.08762310  0.24929908     0.36910
C1690       C  0.61847271  0.19349501  0.25046159     0.36810
N1691       N  0.66156746  0.06632786  0.24917454    -0.43440
N1692       N  0.61107720  0.21494061  0.25026670    -0.43430
C1693       C  0.40453380  0.15747629  0.24265122     0.00150
C1694       C  0.42894069  0.16497124  0.25198223    -0.11720
C1695       C  0.44781998  0.14636964  0.25803748     0.02390
C1696       C  0.44228468  0.11932716  0.25524760     0.00070
C1697       C  0.41721113  0.11174277  0.24726507    -0.11660
C1698       C  0.39843019  0.13066122  0.24061039     0.02270
H1699       H  0.43360846  0.18566204  0.25351382     0.15250
H1700       H  0.41258613  0.09109188  0.24533172     0.15250
C1701       C  0.37347510  0.12226120  0.23095495     0.36910
C1702       C  0.47270052  0.15590298  0.26689329     0.36810
N1703       N  0.35345147  0.11552974  0.22321135    -0.43440
N1704       N  0.49262627  0.16380171  0.27371193    -0.43430
C1705       C  0.44180872  0.11443468  0.34830063     0.00150
C1706       C  0.41935133  0.10228201  0.35798766    -0.11720
C1707       C  0.39963924  0.11704123  0.36969081     0.02390
C1708       C  0.40193605  0.14455803  0.37124866     0.00070
C1709       C  0.42371631  0.15686767  0.36060397    -0.11660
C1710       C  0.44373129  0.14213259  0.34943097     0.02270
H1711       H  0.41755077  0.08109932  0.35720974     0.15250
H1712       H  0.42552988  0.17803063  0.36195584     0.15250
C1713       C  0.46588361  0.15619482  0.33950611     0.36910
C1714       C  0.37740815  0.10353280  0.38030289     0.36810
N1715       N  0.48347134  0.16802135  0.33195151    -0.43440
N1716       N  0.35964250  0.09275676  0.38895777    -0.43430
C1717       C  0.72789887  0.14226526  0.42837891     0.00150
C1718       C  0.73802822  0.11714617  0.42464461    -0.11720
C1719       C  0.74528674  0.10166597  0.44595113     0.02390
C1720       C  0.74224460  0.11140823  0.47190332     0.00070
C1721       C  0.73242238  0.13697624  0.47542637    -0.11660
C1722       C  0.72530399  0.15242758  0.45386561     0.02270
H1723       H  0.73966146  0.10936553  0.40487198     0.15250
H1724       H  0.73032184  0.14500022  0.49502218     0.15250
C1725       C  0.71481041  0.17832042  0.45827015     0.36910
C1726       C  0.75496974  0.07570360  0.44012658     0.36810
N1727       N  0.70642869  0.19910318  0.46172677    -0.43440
N1728       N  0.76269768  0.05497035  0.43513137    -0.43430
C1729       C  0.66091863  0.14536006  0.36003916     0.00150
C1730       C  0.63858439  0.14529753  0.37576896    -0.11720
C1731       C  0.61697208  0.13029223  0.36885074     0.02390
C1732       C  0.61757806  0.11525596  0.34558590     0.00070
C1733       C  0.63937071  0.11665345  0.32921070    -0.11660
C1734       C  0.66104087  0.13114812  0.33635200     0.02270
H1735       H  0.63856056  0.15602739  0.39416701     0.15250
H1736       H  0.63987930  0.10564243  0.31098272     0.15250
C1737       C  0.68370145  0.12866140  0.32007774     0.36910
C1738       C  0.59532982  0.12950106  0.38676459     0.36810
N1739       N  0.70127776  0.12541117  0.30642447    -0.43440
N1740       N  0.57805482  0.12889887  0.40121166    -0.43430
C1741       C  0.71305193  0.24021782  0.25163326     0.00150
C1742       C  0.70599138  0.25201866  0.27555671    -0.11720
C1743       C  0.72392809  0.26700068  0.29016193     0.02390
C1744       C  0.74984097  0.26951765  0.28142163     0.00070
C1745       C  0.75658802  0.25815845  0.25722617    -0.11660
C1746       C  0.73848101  0.24410560  0.24219768     0.02270
H1747       H  0.68646318  0.24937113  0.28292104     0.15250
H1748       H  0.77644139  0.25960205  0.25041489     0.15250
C1749       C  0.74684954  0.23281343  0.21763876     0.36910
C1750       C  0.71551704  0.27881336  0.31441405     0.36810
N1751       N  0.75351754  0.22386283  0.19789308    -0.43440
N1752       N  0.70860025  0.28812909  0.33389887    -0.43430
C1753       C  0.76624007  0.24642585  0.33177472     0.00150
C1754       C  0.75907608  0.22411159  0.31746738    -0.11720
C1755       C  0.74522784  0.20388411  0.32917702     0.02390
C1756       C  0.73674392  0.20649795  0.35533187     0.00070
C1757       C  0.74279785  0.22935935  0.36936797    -0.11660
C1758       C  0.75747455  0.24926260  0.35786278     0.02270
H1759       H  0.76594872  0.22167780  0.29751857     0.15250
H1760       H  0.73599537  0.23164968  0.38937841     0.15250
C1761       C  0.76232491  0.27278823  0.37284779     0.36910
C1762       C  0.74264509  0.17986550  0.31456007     0.36810
N1763       N  0.76591169  0.29166384  0.38492299    -0.43440
N1764       N  0.74191094  0.16093578  0.30210612    -0.43430
C1765       C  0.82450883  0.25584031  0.34447772     0.00150
C1766       C  0.85024093  0.26278241  0.35026630    -0.11720
C1767       C  0.86502456  0.24842364  0.36859253     0.02390
C1768       C  0.85349051  0.22721791  0.38286484     0.00070
C1769       C  0.83005243  0.21751971  0.37247267    -0.11660
C1770       C  0.81831374  0.22952995  0.35066488     0.02270
H1771       H  0.85857881  0.27986964  0.34109222     0.15250
H1772       H  0.82251116  0.19877928  0.37862222     0.15250
C1773       C  0.81288762  0.21158083  0.32950597     0.36910
C1774       C  0.89218362  0.25503543  0.37042751     0.36810
N1775       N  0.80995513  0.19663027  0.31265484    -0.43440
N1776       N  0.91393512  0.26045829  0.37168639    -0.43430
C1777       C  0.73122016  0.35300534  0.24326805     0.00150
C1778       C  0.73162838  0.35515147  0.27069472    -0.11720
C1779       C  0.74893322  0.34004516  0.28580870     0.02390
C1780       C  0.76690779  0.32302735  0.27345854     0.00070
C1781       C  0.76514667  0.31989864  0.24603695    -0.11660
C1782       C  0.74823438  0.33524695  0.23094584     0.02270
H1783       H  0.71830898  0.36852298  0.28029971     0.15250
H1784       H  0.77654126  0.30507948  0.23616896     0.15250
C1785       C  0.74907750  0.33288388  0.20269923     0.36910
C1786       C  0.74656064  0.34086837  0.31404336     0.36810
N1787       N  0.74990911  0.33122166  0.18005726    -0.43440
N1788       N  0.74450249  0.34131302  0.33666303    -0.43430
C1789       C  0.65559168  0.36751790  0.18105241     0.00150
C1790       C  0.65199813  0.34033292  0.17763031    -0.11720
C1791       C  0.63155978  0.33052531  0.16233623     0.02390
C1792       C  0.61599977  0.34764935  0.14736494     0.00070
C1793       C  0.61834883  0.37465473  0.15171919    -0.11660
C1794       C  0.63703008  0.38460311  0.16918175     0.02270
H1795       H  0.66467349  0.32640504  0.18729711     0.15250
H1796       H  0.60500387  0.38799977  0.14201500     0.15250
C1797       C  0.63527823  0.41212045  0.17571053     0.36910
C1798       C  0.62395007  0.30369962  0.16631943     0.36810
N1799       N  0.63369303  0.43417127  0.18088029    -0.43440
N1800       N  0.61690982  0.28281543  0.17141316    -0.43430
C1801       C  0.64421270  0.92872374  0.24283732     0.00150
C1802       C  0.65069920  0.95269777  0.23086835    -0.11720
C1803       C  0.63634769  0.97556305  0.23629693     0.02390
C1804       C  0.61519997  0.97422116  0.25367167     0.00070
C1805       C  0.60972049  0.95054546  0.26651424    -0.11660
C1806       C  0.62391020  0.92791693  0.26121663     0.02270
H1807       H  0.66605632  0.95323411  0.21637794     0.15250
H1808       H  0.59353974  0.94951521  0.28007053     0.15250
C1809       C  0.61592853  0.90361155  0.27331009     0.36910
C1810       C  0.64233438  0.99949812  0.22250099     0.36810
N1811       N  0.60929208  0.88412152  0.28277950    -0.43440
N1812       N  0.64705313  0.01867263  0.21134011    -0.43430
C1813       C  0.41539526  0.92679058  0.24765646     0.00150
C1814       C  0.43741187  0.92368991  0.26343507    -0.11720
C1815       C  0.45243655  0.94518517  0.27049009     0.02390
C1816       C  0.44564045  0.97047563  0.26139283     0.00070
C1817       C  0.42224188  0.97398003  0.24762222    -0.11660
C1818       C  0.40700510  0.95219216  0.24071003     0.02270
H1819       H  0.44344955  0.90415808  0.26939017     0.15250
H1820       H  0.41656933  0.99344375  0.24119288     0.15250
C1821       C  0.38355887  0.95615496  0.22572799     0.36910
C1822       C  0.47496009  0.94061891  0.28684137     0.36810
N1823       N  0.36464437  0.95936422  0.21387816    -0.43440
N1824       N  0.49296801  0.93690597  0.29993542    -0.43430
C1825       C  0.63171672  0.85094007  0.18639895     0.00150
C1826       C  0.62290977  0.86506085  0.16437314    -0.11720
C1827       C  0.60444026  0.85465099  0.14715598     0.02390
C1828       C  0.59473057  0.82905437  0.15116695     0.00070
C1829       C  0.60380573  0.81460605  0.17284713    -0.11660
C1830       C  0.62201400  0.82525404  0.19043432     0.02270
H1831       H  0.63006378  0.88475221  0.16089216     0.15250
H1832       H  0.59680543  0.79479359  0.17596993     0.15250
C1833       C  0.62957457  0.80961132  0.21281697     0.36910
C1834       C  0.59484681  0.87136298  0.12637347     0.36810
N1835       N  0.63571624  0.79692435  0.23063505    -0.43440
N1836       N  0.58713121  0.88501517  0.10995574    -0.43430
C1837       C  0.46294024  0.82506380  0.15657120     0.00150
C1838       C  0.43700572  0.83109664  0.15003915    -0.11720
C1839       C  0.42010566  0.84241207  0.16835577     0.02390
C1840       C  0.42883387  0.84778501  0.19399379     0.00070
C1841       C  0.45458126  0.84177319  0.20075168    -0.11660
C1842       C  0.47162276  0.83051907  0.18241847     0.02270
H1843       H  0.42981595  0.82711122  0.13041972     0.15250
H1844       H  0.46154446  0.84646252  0.22030729     0.15250
C1845       C  0.49814852  0.82609334  0.19040555     0.36910
C1846       C  0.39425944  0.84956651  0.16001357     0.36810
N1847       N  0.51940805  0.82260920  0.19687018    -0.43440
N1848       N  0.37361311  0.85547838  0.15328089    -0.43430
C1849       C  0.60393861  0.72927091  0.15487874     0.00150
C1850       C  0.62900553  0.73567609  0.14633334    -0.11720
C1851       C  0.65079925  0.72973222  0.16147006     0.02390
C1852       C  0.64795144  0.71660074  0.18560514     0.00070
C1853       C  0.62287872  0.71108256  0.19489866    -0.11660
C1854       C  0.60081148  0.71772992  0.17987371     0.02270
H1855       H  0.63161668  0.74524482  0.12748542     0.15250
H1856       H  0.62059330  0.70111719  0.21355620     0.15250
C1857       C  0.57541281  0.71155068  0.18990347     0.36910
C1858       C  0.67599493  0.73690862  0.15150908     0.36810
N1859       N  0.55501192  0.70672597  0.19797217    -0.43440
N1860       N  0.69606262  0.74296235  0.14344912    -0.43430
C1861       C  0.74243450  0.82453478  0.28261354     0.00150
C1862       C  0.71908114  0.83192465  0.29469297    -0.11720
C1863       C  0.70010333  0.84617812  0.28108433     0.02390
C1864       C  0.70341300  0.85190321  0.25418721     0.00070
C1865       C  0.72627011  0.84389654  0.24173438    -0.11660
C1866       C  0.74592834  0.83091621  0.25575081     0.02270
H1867       H  0.71553599  0.82661361  0.31489345     0.15250
H1868       H  0.72904788  0.84844576  0.22112263     0.15250
C1869       C  0.76970970  0.82520372  0.24206121     0.36910
C1870       C  0.67743435  0.85470351  0.29529424     0.36810
N1871       N  0.78848226  0.82088419  0.23044939    -0.43440
N1872       N  0.65955202  0.86178405  0.30700504    -0.43430
C1873       C  0.72659985  0.73468382  0.24017620     0.00150
C1874       C  0.71655128  0.74387570  0.26397150    -0.11720
C1875       C  0.73110170  0.76038718  0.28023961     0.02390
C1876       C  0.75597941  0.76898373  0.27234287     0.00070
C1877       C  0.76565579  0.76039966  0.24810358    -0.11660
C1878       C  0.75156141  0.74300875  0.23232879     0.02270
H1879       H  0.69754317  0.73737662  0.27030011     0.15250
H1880       H  0.78444731  0.76706114  0.24151291     0.15250
C1881       C  0.76342899  0.73413022  0.20830757     0.36910
C1882       C  0.72026570  0.76715576  0.30540779     0.36810
N1883       N  0.77368576  0.72709606  0.18939933    -0.43440
N1884       N  0.71096839  0.77219987  0.32542067    -0.43430
C1885       C  0.86280572  0.74544891  0.36984321     0.00150
C1886       C  0.83637635  0.74394643  0.37580140    -0.11720
C1887       C  0.81802973  0.75726471  0.36055077     0.02390
C1888       C  0.82608321  0.77277620  0.33912878     0.00070
C1889       C  0.85251919  0.77410326  0.33294233    -0.11660
C1890       C  0.87091040  0.76057311  0.34814076     0.02270
H1891       H  0.83009416  0.73235182  0.39247233     0.15250
H1892       H  0.85877684  0.78588016  0.31642173     0.15250
C1893       C  0.89799648  0.76333361  0.34175314     0.36910
C1894       C  0.79097942  0.75441169  0.36707227     0.36810
N1895       N  0.91969449  0.76580108  0.33661398    -0.43440
N1896       N  0.76934641  0.75175722  0.37235906    -0.43430
C1897       C  0.72767348  0.95697860  0.42882864     0.00150
C1898       C  0.72152107  0.98387037  0.43072160    -0.11720
C1899       C  0.72501086  0.99760590  0.45405054     0.02390
C1900       C  0.73699849  0.98524517  0.47547605     0.00070
C1901       C  0.74397363  0.95869355  0.47376387    -0.11660
C1902       C  0.73898395  0.94431293  0.45081256     0.02270
H1903       H  0.71296379  0.99409252  0.41414669     0.15250
H1904       H  0.75340986  0.94925088  0.49032939     0.15250
C1905       C  0.74478340  0.91660203  0.45085554     0.36910
C1906       C  0.71439544  0.02376080  0.45627431     0.36810
N1907       N  0.74949483  0.89439514  0.45097315    -0.43440
N1908       N  0.70535884  0.04445366  0.45832649    -0.43430
C1909       C  0.66046586  0.94796045  0.36054499     0.00150
C1910       C  0.63997231  0.95338206  0.37795378    -0.11720
C1911       C  0.61993986  0.97046470  0.37096159     0.02390
C1912       C  0.61952762  0.98156411  0.34562511     0.00070
C1913       C  0.63875503  0.97447340  0.32748402    -0.11660
C1914       C  0.65911718  0.95780545  0.33463584     0.02270
H1915       H  0.64061100  0.94569261  0.39781289     0.15250
H1916       H  0.63812683  0.98237084  0.30771593     0.15250
C1917       C  0.67891435  0.95245373  0.31535683     0.36910
C1918       C  0.60147625  0.97804369  0.39087956     0.36810
N1919       N  0.69459090  0.94804857  0.29973766    -0.43440
N1920       N  0.58686351  0.98433872  0.40690862    -0.43430
C1921       C  0.73884813  0.88964461  0.35711541     0.00150
C1922       C  0.73375687  0.86436691  0.36625807    -0.11720
C1923       C  0.74530482  0.84260581  0.35453487     0.02390
C1924       C  0.76241144  0.84596476  0.33314762     0.00070
C1925       C  0.76782810  0.87138845  0.32414647    -0.11660
C1926       C  0.75608626  0.89326300  0.33598310     0.02270
H1927       H  0.72030126  0.86162852  0.38237604     0.15250
H1928       H  0.78105451  0.87406760  0.30785300     0.15250
C1929       C  0.76177514  0.91916081  0.32617027     0.36910
C1930       C  0.73849432  0.81703000  0.36444132     0.36810
N1931       N  0.76631733  0.93997828  0.31839520    -0.43440
N1932       N  0.73272239  0.79687963  0.37304276    -0.43430
C1933       C  0.71994257  0.65318055  0.18712832     0.00150
C1934       C  0.71634356  0.62705740  0.19526978    -0.11720
C1935       C  0.72709376  0.60617483  0.18076747     0.02390
C1936       C  0.74148317  0.61164146  0.15792969     0.00070
C1937       C  0.74598714  0.63777175  0.15075453    -0.11660
C1938       C  0.73520529  0.65839894  0.16485571     0.02270
H1939       H  0.70453636  0.62299599  0.21237241     0.15250
H1940       H  0.75704615  0.64206195  0.13315107     0.15250
C1941       C  0.73863451  0.68464479  0.15482160     0.36910
C1942       C  0.72192555  0.57951505  0.18865460     0.36810
N1943       N  0.74141722  0.70545123  0.14622912    -0.43440
N1944       N  0.71783073  0.55809864  0.19492274    -0.43430
C1945       C  0.74582879  0.47390357  0.15858258     0.00150
C1946       C  0.72544508  0.47902337  0.17598100    -0.11720
C1947       C  0.71526401  0.45877208  0.19144208     0.02390
C1948       C  0.72616871  0.43340914  0.18997810     0.00070
C1949       C  0.74771296  0.42890637  0.17398858    -0.11660
C1950       C  0.75726737  0.44875510  0.15793047     0.02270
H1951       H  0.71645516  0.49827163  0.17622006     0.15250
H1952       H  0.75577514  0.40927847  0.17252641     0.15250
C1953       C  0.77729592  0.44215588  0.13929212     0.36910
C1954       C  0.69297061  0.46403172  0.20769742     0.36810
N1955       N  0.79291939  0.43649810  0.12404459    -0.43440
N1956       N  0.67507153  0.46822136  0.22070715    -0.43430
C1957       C  0.73549966  0.47243817  0.98324738     0.00150
C1958       C  0.75269636  0.45217266  0.97681797    -0.11720
C1959       C  0.74450250  0.43075959  0.96186663     0.02390
C1960       C  0.71837928  0.42926569  0.95357055     0.00070
C1961       C  0.70164431  0.45052510  0.95864844    -0.11660
C1962       C  0.71000569  0.47201076  0.97351296     0.02270
H1963       H  0.77225972  0.45244374  0.98467739     0.15250
H1964       H  0.68154981  0.44952897  0.95239646     0.15250
C1965       C  0.69174922  0.49247737  0.98005842     0.36910
C1966       C  0.76272133  0.40968177  0.95739950     0.36810
N1967       N  0.67716031  0.50888623  0.98542327    -0.43440
N1968       N  0.77740405  0.39288695  0.95374220    -0.43430
C1969       C  0.83994740  0.71395860  0.26417388     0.00150
C1970       C  0.84397392  0.74021040  0.25746773    -0.11720
C1971       C  0.82939504  0.76013427  0.26912918     0.02390
C1972       C  0.81004596  0.75393541  0.28771537     0.00070
C1973       C  0.80593200  0.72758320  0.29449532    -0.11660
C1974       C  0.82086053  0.70758241  0.28293515     0.02270
H1975       H  0.85883024  0.74516170  0.24326320     0.15250
H1976       H  0.79144403  0.72274908  0.30909812     0.15250
C1977       C  0.81693825  0.68079611  0.29112348     0.36910
C1978       C  0.83475640  0.78684594  0.26159836     0.36810
N1979       N  0.81395790  0.65929514  0.29773408    -0.43440
N1980       N  0.83940910  0.80807080  0.25514881    -0.43430
C1981       C  0.84072088  0.61263487  0.15352765     0.00150
C1982       C  0.85036770  0.60120934  0.17667653    -0.11720
C1983       C  0.85820207  0.61666150  0.19796367     0.02390
C1984       C  0.85673473  0.64432055  0.19633883     0.00070
C1985       C  0.84684186  0.65582021  0.17339015    -0.11660
C1986       C  0.83874077  0.64032384  0.15213469     0.02270
H1987       H  0.85149824  0.58002199  0.17829120     0.15250
H1988       H  0.84532361  0.67701116  0.17212877     0.15250
C1989       C  0.82691757  0.65345278  0.13004046     0.36910
C1990       C  0.86662042  0.60355586  0.22166996     0.36810
N1991       N  0.81725406  0.66447490  0.11272510    -0.43440
N1992       N  0.87336863  0.59310234  0.24067666    -0.43430
C1993       C  0.82736239  0.32910312  0.28674959     0.00150
C1994       C  0.82570704  0.32949122  0.25916819    -0.11720
C1995       C  0.84028077  0.34667582  0.24364718     0.02390
C1996       C  0.85756432  0.36456467  0.25558906     0.00070
C1997       C  0.86244386  0.36135463  0.28252630    -0.11660
C1998       C  0.84969842  0.34199458  0.29725108     0.02270
H1999       H  0.81445644  0.31482422  0.24934580     0.15250
H2000       H  0.87732367  0.37290360  0.29207431     0.15250
C2001       C  0.86400874  0.33286537  0.31981570     0.36910
C2002       C  0.83835669  0.34400983  0.21546353     0.36810
N2003       N  0.87691296  0.32638261  0.33728806    -0.43440
N2004       N  0.83684346  0.34172704  0.19290432    -0.43430
C2005       C  0.86066937  0.43370306  0.18505889     0.00150
C2006       C  0.85528968  0.45906781  0.19430372    -0.11720
C2007       C  0.84696506  0.47895549  0.17721627     0.02390
C2008       C  0.84393233  0.47356892  0.15011735     0.00070
C2009       C  0.84964811  0.44802328  0.14103844    -0.11660
C2010       C  0.85774661  0.42818735  0.15823899     0.02270
H2011       H  0.85843558  0.46353686  0.21489643     0.15250
H2012       H  0.84740046  0.44327043  0.12041407     0.15250
C2013       C  0.86323587  0.40237769  0.14798393     0.36910
C2014       C  0.84302716  0.50487367  0.18794082     0.36810
N2015       N  0.86756995  0.38163577  0.13985874    -0.43440
N2016       N  0.84000277  0.52563629  0.19661044    -0.43430
C2017       C  0.22139283  0.37302790  0.26636012     0.00150
C2018       C  0.23505530  0.38110322  0.28880972    -0.11720
C2019       C  0.25001215  0.36311427  0.30324952     0.02390
C2020       C  0.25090271  0.33659391  0.29540223     0.00070
C2021       C  0.23764485  0.32881782  0.27262427    -0.11660
C2022       C  0.22292791  0.34671754  0.25815479     0.02270
H2023       H  0.23418433  0.40147336  0.29487737     0.15250
H2024       H  0.23837445  0.30846184  0.26647079     0.15010
C2025       C  0.20904472  0.33753550  0.23528474     0.36910
C2026       C  0.26479953  0.37239063  0.32543206     0.36810
N2027       N  0.19787094  0.33019125  0.21698715    -0.43440
N2028       N  0.27676255  0.37990928  0.34313630    -0.43430
C2029       C  0.92204652  0.66220697  0.26483555     0.00150
C2030       C  0.91832677  0.64660476  0.28709201    -0.11720
C2031       C  0.93836057  0.63099432  0.29681688     0.02390
C2032       C  0.96302587  0.63173400  0.28487512     0.00070
C2033       C  0.96745122  0.64896870  0.26392500    -0.11660
C2034       C  0.94698008  0.66398036  0.25358596     0.02270
H2035       H  0.89909123  0.64489440  0.29551505     0.15250
H2036       H  0.98633966  0.64942469  0.25462852     0.15250
C2037       C  0.95159227  0.68010209  0.23078815     0.36910
C2038       C  0.93246302  0.61292734  0.31782965     0.36810
N2039       N  0.95529017  0.69303831  0.21250676    -0.43440
N2040       N  0.92735363  0.59846592  0.33454529    -0.43430
C2041       C  0.93538173  0.42395656  0.23978647     0.00150
C2042       C  0.93663856  0.45081943  0.23355690    -0.11720
C2043       C  0.95579173  0.46706194  0.24347221     0.02390
C2044       C  0.97327115  0.45751935  0.26273274     0.00070
C2045       C  0.97372849  0.43026001  0.26758282    -0.11660
C2046       C  0.95518454  0.41342089  0.25606481     0.02270
H2047       H  0.92186364  0.46000256  0.22150370     0.15250
H2048       H  0.98764897  0.42224868  0.28142268     0.15250
C2049       C  0.95702750  0.38570178  0.26144150     0.36910
C2050       C  0.95619310  0.49361261  0.23340892     0.36810
N2051       N  0.95859131  0.36348155  0.26585695    -0.43440
N2052       N  0.95623945  0.51470089  0.22499107    -0.43430
C2053       C  0.09825958  0.45239756  0.37773860     0.00150
C2054       C  0.08846401  0.42847600  0.38697770    -0.11720
C2055       C  0.10512938  0.40885729  0.39622634     0.02390
C2056       C  0.13222198  0.41303916  0.39637780     0.00070
C2057       C  0.14212760  0.43643142  0.38609426    -0.11660
C2058       C  0.12547333  0.45604764  0.37673995     0.02270
H2059       H  0.06768887  0.42523509  0.38737685     0.15250
H2060       H  0.16293435  0.43948286  0.38564557     0.15250
C2061       C  0.13693887  0.47924294  0.36537021     0.36910
C2062       C  0.09396847  0.38440014  0.40498189     0.36810
N2063       N  0.14623080  0.49771860  0.35615508    -0.43440
N2064       N  0.08510798  0.36479845  0.41205570    -0.43430
C2065       C  0.14230647  0.42968842  0.25661766     0.00150
C2066       C  0.12407274  0.41658090  0.27251430    -0.11720
C2067       C  0.10317990  0.43028255  0.28409687     0.02390
C2068       C  0.09984819  0.45736632  0.27892851     0.00070
C2069       C  0.11779939  0.46981086  0.26229301    -0.11660
C2070       C  0.13927262  0.45694684  0.25250207     0.02270
H2071       H  0.12638861  0.39577385  0.27626288     0.15250
H2072       H  0.11605484  0.49050773  0.25766596     0.15250
C2073       C  0.15869932  0.47319686  0.24001187     0.36910
C2074       C  0.08625712  0.41632822  0.30173365     0.36810
N2075       N  0.17402639  0.48638458  0.23001277    -0.43440
N2076       N  0.07280958  0.40510530  0.31599478    -0.43430
C2077       C  0.14232180  0.66384663  0.26918846     0.00150
C2078       C  0.14893436  0.64191092  0.28430385    -0.11720
C2079       C  0.12985552  0.62504056  0.29379713     0.02390
C2080       C  0.10341407  0.63000622  0.28820642     0.00070
C2081       C  0.09661208  0.65319468  0.27493057    -0.11660
C2082       C  0.11593597  0.67003466  0.26520544     0.02270
H2083       H  0.16922897  0.63714507  0.28744167     0.15250
H2084       H  0.07635984  0.65746605  0.27105153     0.15250
C2085       C  0.10840821  0.69307328  0.25059717     0.36910
C2086       C  0.13807332  0.60254659  0.30897756     0.36810
N2087       N  0.10236757  0.71166286  0.23904243    -0.43440
N2088       N  0.14482816  0.58460935  0.32114898    -0.43430
C2089       C  0.96288542  0.63197819  0.37936932     0.00150
C2090       C  0.96017995  0.65267181  0.36128758    -0.11720
C2091       C  0.94279886  0.67326042  0.36557467     0.02390
C2092       C  0.92797617  0.67388396  0.38881966     0.00070
C2093       C  0.93029027  0.65292544  0.40672678    -0.11660
C2094       C  0.94741574  0.63202704  0.40215892     0.02270
H2095       H  0.97152331  0.65263629  0.34337620     0.15250
H2096       H  0.91902983  0.65319087  0.42468698     0.15250
C2097       C  0.94961512  0.61168874  0.42176553     0.36910
C2098       C  0.94137111  0.69372601  0.34603777     0.36810
N2099       N  0.95137582  0.59546000  0.43756602    -0.43440
N2100       N  0.94033719  0.70974139  0.32996850    -0.43430
C2101       C  0.21628824  0.61695309  0.15527418     0.00150
C2102       C  0.21635474  0.64423025  0.15077664    -0.11720
C2103       C  0.20916786  0.66197135  0.17062616     0.02390
C2104       C  0.20137185  0.65245285  0.19538037     0.00070
C2105       C  0.20086413  0.62522707  0.19964600    -0.11660
C2106       C  0.20820634  0.60755253  0.18003467     0.02270
H2107       H  0.22276356  0.65175999  0.13196436     0.15250
H2108       H  0.19488693  0.61769473  0.21861571     0.15250
C2109       C  0.20683810  0.57983963  0.18582294     0.36910
C2110       C  0.20963678  0.68972763  0.16505520     0.36810
N2111       N  0.20575723  0.55764971  0.19050018    -0.43440
N2112       N  0.21004749  0.71198414  0.16059107    -0.43430
C2113       C  0.20997573  0.43717795  0.19249578     0.00150
C2114       C  0.19841675  0.43734821  0.16759774    -0.11720
C2115       C  0.20395910  0.45708261  0.14932975     0.02390
C2116       C  0.22183812  0.47732872  0.15570634     0.00070
C2117       C  0.23312175  0.47720843  0.18089075    -0.11660
C2118       C  0.22743157  0.45745579  0.19913505     0.02270
H2119       H  0.18421950  0.42241563  0.16276043     0.15250
H2120       H  0.24675168  0.49243698  0.18636673     0.15250
C2121       C  0.23873163  0.45925487  0.22504324     0.36910
C2122       C  0.18986984  0.45642837  0.12479382     0.36810
N2123       N  0.24772352  0.46070754  0.24582992    -0.43440
N2124       N  0.17831244  0.45573689  0.10530041    -0.43430
C2125       C  0.33584570  0.44009098  0.19397870     0.00150
C2126       C  0.35324804  0.46085848  0.18916045    -0.11720
C2127       C  0.34572845  0.48272222  0.17423779     0.02390
C2128       C  0.32008957  0.48467319  0.16501156     0.00070
C2129       C  0.30212368  0.46529648  0.17181413    -0.11660
C2130       C  0.30973116  0.44296493  0.18583518     0.02270
H2131       H  0.37330367  0.45906080  0.19536413     0.15250
H2132       H  0.28265884  0.46634316  0.16383487     0.15250
C2133       C  0.29108299  0.42205415  0.18845629     0.36910
C2134       C  0.36492855  0.50203936  0.16719092     0.36810
N2135       N  0.27615604  0.40524862  0.19032430    -0.43440
N2136       N  0.38030781  0.51748611  0.16140418    -0.43430
C2137       C  0.42275650  0.70065929  0.19411176     0.00150
C2138       C  0.44146403  0.71896291  0.20266506    -0.11720
C2139       C  0.46170291  0.72752073  0.18605643     0.02390
C2140       C  0.46388905  0.71748551  0.16015519     0.00070
C2141       C  0.44603936  0.69827714  0.15230239    -0.11660
C2142       C  0.42555201  0.69036915  0.16826980     0.02270
H2143       H  0.44010406  0.72698101  0.22232409     0.15250
H2144       H  0.44726515  0.68992551  0.13274893     0.15250
C2145       C  0.40721961  0.67280680  0.15603412     0.36910
C2146       C  0.47934482  0.74704929  0.19606848     0.36810
N2147       N  0.39344227  0.65842325  0.14535923    -0.43440
N2148       N  0.49347434  0.76264383  0.20428190    -0.43430
C2149       C  0.32348144  0.61626702  0.16165573     0.00150
C2150       C  0.32688694  0.60651007  0.18741103    -0.11720
C2151       C  0.33916962  0.62176104  0.20689803     0.02390
C2152       C  0.34780568  0.64715694  0.20068392     0.00070
C2153       C  0.34254273  0.65750692  0.17588567    -0.11660
C2154       C  0.33115947  0.64244034  0.15632160     0.02270
H2155       H  0.32073596  0.58673892  0.19211081     0.15250
H2156       H  0.34851359  0.67744799  0.17142700     0.15250
C2157       C  0.32845167  0.65490100  0.13102602     0.36910
C2158       C  0.34277725  0.61112768  0.23287893     0.36810
N2159       N  0.32724523  0.66591852  0.11121134    -0.43440
N2160       N  0.34549396  0.60269526  0.25380495    -0.43430
C2161       C  0.25859403  0.74940134  0.29381336     0.00150
C2162       C  0.25890901  0.72217603  0.29784089    -0.11720
C2163       C  0.24115809  0.70588409  0.28478943     0.02390
C2164       C  0.22356540  0.71664219  0.26642756     0.00070
C2165       C  0.22403610  0.74368123  0.26148858    -0.11660
C2166       C  0.24118421  0.76009010  0.27517405     0.02270
H2167       H  0.27250796  0.71373912  0.31172422     0.15250
H2168       H  0.21064191  0.75202746  0.24730808     0.15250
C2169       C  0.24075220  0.78790344  0.26977372     0.36910
C2170       C  0.24065543  0.67830133  0.29115116     0.36810
N2171       N  0.24065677  0.81018970  0.26544444    -0.43440
N2172       N  0.23997347  0.65621771  0.29635801    -0.43430
C2173       C  0.31511822  0.76042537  0.28337585     0.00150
C2174       C  0.30716609  0.75253168  0.25812557    -0.11720
C2175       C  0.32296538  0.73660514  0.24242303     0.02390
C2176       C  0.34708642  0.72755033  0.25204255     0.00070
C2177       C  0.35507188  0.73518811  0.27721718    -0.11660
C2178       C  0.33928233  0.75121175  0.29295263     0.02270
H2179       H  0.28890519  0.75952851  0.25025318     0.15250
H2180       H  0.37317448  0.72762797  0.28505949     0.15250
C2181       C  0.34743069  0.75612675  0.31962893     0.36910
C2182       C  0.31411083  0.72995134  0.21633974     0.36810
N2183       N  0.35393215  0.75960479  0.34110827    -0.43440
N2184       N  0.30707255  0.72460884  0.19542482    -0.43430
C2185       C  0.32053635  0.82174108  0.29167154     0.00150
C2186       C  0.32338193  0.81597392  0.26467542    -0.11720
C2187       C  0.33951587  0.83058350  0.24810410     0.02390
C2188       C  0.35385450  0.85185616  0.25832785     0.00070
C2189       C  0.34661439  0.86094427  0.28344821    -0.11660
C2190       C  0.32806472  0.84765717  0.29859192     0.02270
H2191       H  0.31181566  0.80107628  0.25562186     0.15250
H2192       H  0.35477053  0.87874795  0.29145845     0.15250
C2193       C  0.31493151  0.86286824  0.31844822     0.36910
C2194       C  0.33929574  0.82427622  0.22044211     0.36810
N2195       N  0.30475525  0.87592240  0.33391025    -0.43440
N2196       N  0.33894221  0.81913599  0.19831071    -0.43430
C2197       C  0.20471755  0.73610297  0.37600253     0.00150
C2198       C  0.19927286  0.76069342  0.36471299    -0.11720
C2199       C  0.21799117  0.77381685  0.34963680     0.02390
C2200       C  0.24284524  0.76267506  0.34657577     0.00070
C2201       C  0.24771816  0.73757174  0.35684447    -0.11660
C2202       C  0.22894788  0.72422405  0.37133288     0.02270
H2203       H  0.18046014  0.76967864  0.36784221     0.15250
H2204       H  0.26689844  0.72905750  0.35490638     0.15250
C2205       C  0.23575119  0.69927120  0.38291839     0.36910
C2206       C  0.21146159  0.79866321  0.33776681     0.36810
N2207       N  0.24122619  0.67932624  0.39228590    -0.43440
N2208       N  0.20623073  0.81857675  0.32819439    -0.43430
C2209       C  0.10057241  0.62880052  0.38162000     0.00150
C2210       C  0.11983611  0.62278736  0.40037104    -0.11720
C2211       C  0.13916449  0.64099932  0.40687741     0.02390
C2212       C  0.13990957  0.66545663  0.39404133     0.00070
C2213       C  0.12137440  0.67127599  0.37487956    -0.11660
C2214       C  0.10166551  0.65357426  0.36876259     0.02270
H2215       H  0.11965122  0.60396535  0.41028713     0.15250
H2216       H  0.12161553  0.69038767  0.36546693     0.15250
C2217       C  0.08288400  0.66208717  0.34946158     0.36910
C2218       C  0.15796605  0.63432633  0.42684793     0.36810
N2219       N  0.06791353  0.66948874  0.33418700    -0.43440
N2220       N  0.17305974  0.62904370  0.44285599    -0.43430
C2221       C  0.62420239  0.82842584  0.93285884     0.00150
C2222       C  0.60596234  0.80870447  0.92852417    -0.11720
C2223       C  0.59013729  0.79989994  0.94897835     0.02390
C2224       C  0.59241444  0.81124671  0.97443593     0.00070
C2225       C  0.61203876  0.82983694  0.97885382    -0.11660
C2226       C  0.62783890  0.83841286  0.95838021     0.02270
H2227       H  0.60324349  0.80107563  0.90882229     0.15250
H2228       H  0.61463727  0.83836117  0.99818265     0.15250
C2229       C  0.64716459  0.85818556  0.96376046     0.36910
C2230       C  0.57171812  0.77949459  0.94278289     0.36810
N2231       N  0.66266580  0.87402130  0.96799941    -0.43440
N2232       N  0.55704565  0.76316770  0.93748267    -0.43430
C2233       C  0.62874781  0.91091898  0.88204291     0.00150
C2234       C  0.63302942  0.92379528  0.85792525    -0.11720
C2235       C  0.61938007  0.94662916  0.85134403     0.02390
C2236       C  0.59967866  0.95576628  0.86798340     0.00070
C2237       C  0.59762962  0.94548021  0.89322666    -0.11660
C2238       C  0.61308398  0.92423824  0.90092500     0.02270
H2239       H  0.64674088  0.91626978  0.84390692     0.15250
H2240       H  0.58418174  0.95427637  0.90702779     0.15250
C2241       C  0.61348200  0.91801628  0.92860313     0.36910
C2242       C  0.62672362  0.96123132  0.82823229     0.36810
N2243       N  0.61357293  0.91329568  0.95083243    -0.43440
N2244       N  0.63294327  0.97335938  0.81010193    -0.43430
C2245       C  0.43267186  0.83961905  0.93586176     0.00150
C2246       C  0.41921181  0.82600308  0.95564264    -0.11720
C2247       C  0.43251720  0.81471977  0.97699945     0.02390
C2248       C  0.45977573  0.81670275  0.97854839     0.00070
C2249       C  0.47318043  0.82977175  0.95869581    -0.11660
C2250       C  0.46010549  0.84125797  0.93763965     0.02270
H2251       H  0.39827965  0.82436736  0.95454081     0.15250
H2252       H  0.49415272  0.83127888  0.95981526     0.15250
C2253       C  0.47585494  0.85419414  0.91816617     0.36910
C2254       C  0.41795972  0.80047614  0.99651149     0.36810
N2255       N  0.48905742  0.86478292  0.90321921    -0.43440
N2256       N  0.40627830  0.78899281  0.01210205    -0.43430
C2257       C  0.42888763  0.90902624  0.86945452     0.00150
C2258       C  0.41908413  0.93414634  0.87445553    -0.11720
C2259       C  0.43381673  0.95658591  0.86858334     0.02390
C2260       C  0.45945682  0.95377481  0.85876697     0.00070
C2261       C  0.46811106  0.92828228  0.85234048    -0.11660
C2262       C  0.45302524  0.90621778  0.85717571     0.02270
H2263       H  0.40012309  0.93616405  0.88343171     0.15250
H2264       H  0.48700120  0.92522574  0.84357421     0.15250
C2265       C  0.46303293  0.88068799  0.85001767     0.36910
C2266       C  0.42172336  0.98176248  0.87257596     0.36810
N2267       N  0.47093504  0.86021448  0.84428706    -0.43440
N2268       N  0.41124720  0.00161653  0.87558928    -0.43430
C2269       C  0.21599425  0.63449214  0.92769798     0.00150
C2270       C  0.23363717  0.64742990  0.94454246    -0.11720
C2271       C  0.24126586  0.63626425  0.96864281     0.02390
C2272       C  0.23039762  0.61230803  0.97678566     0.00070
C2273       C  0.21262176  0.59966613  0.96064872    -0.11660
C2274       C  0.20568142  0.60994823  0.93628813     0.02270
H2275       H  0.24186365  0.66610515  0.93882330     0.15250
H2276       H  0.20493394  0.58078341  0.96671919     0.15250
C2277       C  0.18908695  0.59329572  0.92072163     0.36910
C2278       C  0.26131191  0.64882809  0.98392188     0.36810
N2279       N  0.17544288  0.57907255  0.90966617    -0.43440
N2280       N  0.27758887  0.65871358  0.99604895    -0.43430
C2281       C  0.23827235  0.39087392  0.85852612     0.00150
C2282       C  0.23534586  0.36459740  0.86596997    -0.11720
C2283       C  0.24907660  0.34465798  0.85314728     0.02390
C2284       C  0.26620776  0.35086820  0.83247817     0.00070
C2285       C  0.26934333  0.37723929  0.82518076    -0.11660
C2286       C  0.25550407  0.39721108  0.83801757     0.02270
H2287       H  0.22181648  0.35960601  0.88145444     0.15250
H2288       H  0.28258387  0.38222189  0.80948575     0.15250
C2289       C  0.25919788  0.42406822  0.82991107     0.36910
C2290       C  0.24495795  0.31786585  0.86127370     0.36810
N2291       N  0.26215287  0.44564454  0.82353612    -0.43440
N2292       N  0.24170056  0.29643120  0.86795144    -0.43430
C2293       C  0.21602996  0.45482174  0.93150660     0.00150
C2294       C  0.23008511  0.44200243  0.95158179    -0.11720
C2295       C  0.23756532  0.45530329  0.97456870     0.02390
C2296       C  0.23049541  0.48177419  0.97812129     0.00070
C2297       C  0.21647972  0.49458567  0.95845749    -0.11660
C2298       C  0.20936921  0.48171214  0.93534619     0.02270
H2299       H  0.23550629  0.42158523  0.94929126     0.15250
H2300       H  0.21151132  0.51514334  0.96097995     0.15250
C2301       C  0.19616686  0.49752797  0.91593537     0.36910
C2302       C  0.25392719  0.44199190  0.99338570     0.36810
N2303       N  0.18516648  0.51071257  0.90112073    -0.43440
N2304       N  0.26727224  0.43146171  0.00835944    -0.43430
C2305       C  0.93620278  0.46903258  0.74302379     0.00150
C2306       C  0.93481946  0.44606117  0.75806621    -0.11720
C2307       C  0.91499198  0.42776157  0.75394638     0.02390
C2308       C  0.89629355  0.43201692  0.73406023     0.00070
C2309       C  0.89713589  0.45552762  0.71964596    -0.11660
C2310       C  0.91664667  0.47420269  0.72429603     0.02270
H2311       H  0.94939066  0.44235244  0.77302335     0.15250
H2312       H  0.88334507  0.45864858  0.70383958     0.15250
C2313       C  0.91707869  0.49784763  0.70870307     0.36910
C2314       C  0.91535959  0.40382613  0.76910150     0.36810
N2315       N  0.91748513  0.51682208  0.69622943    -0.43440
N2316       N  0.91582260  0.38461012  0.78119641    -0.43430
C2317       C  0.15858087  0.44073951  0.73218291     0.00150
C2318       C  0.15507843  0.46254774  0.71547139    -0.11720
C2319       C  0.13316710  0.47873975  0.71759719     0.02390
C2320       C  0.11454518  0.47361564  0.73704519     0.00070
C2321       C  0.11892343  0.45323590  0.75501425    -0.11660
C2322       C  0.14060720  0.43680504  0.75277316     0.02270
H2323       H  0.16845037  0.46563103  0.69935914     0.15250
H2324       H  0.10518310  0.45002890  0.77079850     0.15250
C2325       C  0.14286578  0.41505665  0.77082225     0.36910
C2326       C  0.12924266  0.49934769  0.69855598     0.36810
N2327       N  0.14465441  0.39769597  0.78536776    -0.43440
N2328       N  0.12590417  0.51565930  0.68309882    -0.43430
C2329       C  0.11464442  0.60439218  0.83482386     0.00150
C2330       C  0.11552392  0.63161932  0.83038090    -0.11720
C2331       C  0.13691903  0.64642962  0.83883292     0.02390
C2332       C  0.15763520  0.63372157  0.85171196     0.00070
C2333       C  0.15707603  0.60641857  0.85478829    -0.11660
C2334       C  0.13554420  0.59186785  0.84738673     0.02270
H2335       H  0.09964066  0.64120555  0.82017174     0.15250
H2336       H  0.17349299  0.59650254  0.86359005     0.15250
C2337       C  0.13456199  0.56451385  0.85469773     0.36910
C2338       C  0.13715771  0.67435535  0.83424317     0.36810
N2339       N  0.13358647  0.54281253  0.86125092    -0.43440
N2340       N  0.13743022  0.69672424  0.83037384    -0.43430
C2341       C  0.15993470  0.44764847  0.85320351     0.00150
C2342       C  0.13629598  0.43463778  0.85000938    -0.11720
C2343       C  0.11500250  0.44753813  0.83862487     0.02390
C2344       C  0.11709450  0.47426774  0.83118845     0.00070
C2345       C  0.14157119  0.48629288  0.83250381    -0.11660
C2346       C  0.16284644  0.47324366  0.84331405     0.02270
H2347       H  0.13441565  0.41452564  0.85668666     0.15250
H2348       H  0.14410869  0.50620180  0.82552989     0.15250
C2349       C  0.18752962  0.48656901  0.84429219     0.36910
C2350       C  0.09209865  0.43223456  0.83337118     0.36810
N2351       N  0.20734699  0.49715317  0.84508240    -0.43440
N2352       N  0.07433980  0.41914378  0.82887306    -0.43430
C2353       C  0.14804674  0.65228179  0.72960713     0.00150
C2354       C  0.15453284  0.62596288  0.72499193    -0.11720
C2355       C  0.13640291  0.60591602  0.72940595     0.02390
C2356       C  0.11103386  0.61228564  0.73783081     0.00070
C2357       C  0.10501483  0.63859325  0.74331838    -0.11660
C2358       C  0.12330384  0.65844290  0.73957276     0.02270
H2359       H  0.17339373  0.62119491  0.71689530     0.15250
H2360       H  0.08599185  0.64366407  0.75084205     0.15250
C2361       C  0.11613543  0.68519078  0.74550424     0.36910
C2362       C  0.14402752  0.57919776  0.72411629     0.36810
N2363       N  0.11051345  0.70663768  0.75032522    -0.43440
N2364       N  0.15036037  0.55781201  0.71999914    -0.43430
C2365       C  0.23786653  0.68794881  0.84649772     0.00150
C2366       C  0.26064174  0.67969694  0.83378858    -0.11720
C2367       C  0.27613206  0.69779229  0.82003341     0.02390
C2368       C  0.26909580  0.72455960  0.81956902     0.00070
C2369       C  0.24604714  0.73242469  0.83179907    -0.11660
C2370       C  0.23038729  0.71448398  0.84495308     0.02270
H2371       H  0.26616128  0.65917738  0.83444926     0.15250
H2372       H  0.24094983  0.75303285  0.83221561     0.15250
C2373       C  0.20712094  0.72397938  0.85754974     0.36910
C2374       C  0.29895569  0.68859890  0.80654739     0.36810
N2375       N  0.18847282  0.73157554  0.86761810    -0.43440
N2376       N  0.31725286  0.68124724  0.79567280    -0.43430
C2377       C  0.25603705  0.74563497  0.76816798     0.00150
C2378       C  0.26420765  0.72633819  0.75021465    -0.11720
C2379       C  0.24630408  0.71297722  0.73421225     0.02390
C2380       C  0.21964602  0.71869338  0.73616967     0.00070
C2381       C  0.21147572  0.73809234  0.75381716    -0.11660
C2382       C  0.22927834  0.75158797  0.76967617     0.02270
H2383       H  0.28467690  0.72165522  0.74878438     0.15250
H2384       H  0.19096117  0.74259751  0.75530570     0.15250
C2385       C  0.21917103  0.77087768  0.78761406     0.36910
C2386       C  0.25562562  0.69347843  0.71598861     0.36810
N2387       N  0.21023802  0.78596292  0.80196954    -0.43440
N2388       N  0.26307516  0.67787942  0.70131257    -0.43430
C2389       C  0.33440066  0.79768638  0.83339201     0.00150
C2390       C  0.33205491  0.82526538  0.83260908    -0.11720
C2391       C  0.34988211  0.84159630  0.84554368     0.02390
C2392       C  0.37166289  0.83035327  0.85845730     0.00070
C2393       C  0.37356525  0.80284219  0.85878634    -0.11660
C2394       C  0.35177265  0.78785107  0.85257917     0.02270
H2395       H  0.31571741  0.83412834  0.82264665     0.15250
H2396       H  0.38906216  0.79350147  0.86976507     0.15250
C2397       C  0.34075080  0.77855005  0.87683484     0.36910
C2398       C  0.34463639  0.86942052  0.84575425     0.36810
N2399       N  0.33275292  0.77311479  0.89734897    -0.43440
N2400       N  0.34034885  0.89171340  0.84572884    -0.43430
C2401       C  0.37135499  0.91549516  0.68028067     0.00150
C2402       C  0.37111019  0.90849858  0.65371549    -0.11720
C2403       C  0.36509613  0.92716350  0.63435010     0.02390
C2404       C  0.35934481  0.95339595  0.64166278     0.00070
C2405       C  0.35875391  0.95987406  0.66845074    -0.11660
C2406       C  0.36461879  0.94128710  0.68763494     0.02270
H2407       H  0.37675308  0.88879161  0.64805506     0.15250
H2408       H  0.35374993  0.97962835  0.67454601     0.15250
C2409       C  0.36461555  0.94937559  0.71484584     0.36910
C2410       C  0.36641300  0.91908320  0.60724100     0.36810
N2411       N  0.36487029  0.95574443  0.73665261    -0.43440
N2412       N  0.36758197  0.91247329  0.58554796    -0.43430
C2413       C  0.43666654  0.90952178  0.74800626     0.00150
C2414       C  0.45763056  0.91911536  0.73302829    -0.11720
C2415       C  0.47274008  0.94020070  0.74186371     0.02390
C2416       C  0.46781801  0.95129776  0.76662245     0.00070
C2417       C  0.44859655  0.94036540  0.78261110    -0.11660
C2418       C  0.43279936  0.91995670  0.77347129     0.02270
H2419       H  0.46096820  0.91138485  0.71348150     0.15250
H2420       H  0.44510941  0.94867376  0.80188502     0.15250
C2421       C  0.41131633  0.91204748  0.78970628     0.36910
C2422       C  0.49239593  0.95089492  0.72479818     0.36810
N2423       N  0.39395218  0.90581757  0.80260035    -0.43440
N2424       N  0.50800684  0.95964096  0.71107230    -0.43430
C2425       C  0.36081258  0.84682849  0.74916391     0.00150
C2426       C  0.36901625  0.82100167  0.75392211    -0.11720
C2427       C  0.35279819  0.80293650  0.76679340     0.02390
C2428       C  0.32801534  0.81071932  0.77591400     0.00070
C2429       C  0.32007529  0.83672655  0.77123588    -0.11660
C2430       C  0.33602118  0.85459216  0.75801354     0.02270
H2431       H  0.38789431  0.81474107  0.74695536     0.15250
H2432       H  0.30162449  0.84351405  0.77852965     0.15250
C2433       C  0.32668323  0.88107267  0.75433308     0.36910
C2434       C  0.36164287  0.77618479  0.76917485     0.36810
N2435       N  0.31921624  0.90226964  0.75122074    -0.43440
N2436       N  0.36901366  0.75477562  0.77047441    -0.43430
C2437       C  0.42759323  0.70513534  0.93804235     0.00150
C2438       C  0.45288567  0.69494567  0.93871944    -0.11720
C2439       C  0.46979403  0.70112447  0.95941456     0.02390
C2440       C  0.46106430  0.71694743  0.98039722     0.00070
C2441       C  0.43618130  0.72790894  0.97922156    -0.11660
C2442       C  0.41958226  0.72245920  0.95814206     0.02270
H2443       H  0.45895959  0.68114871  0.92372889     0.15250
H2444       H  0.42971309  0.74079178  0.99483238     0.15250
C2445       C  0.39364440  0.73320191  0.95866764     0.36910
C2446       C  0.49561473  0.69010655  0.95929634     0.36810
N2447       N  0.37283559  0.74171953  0.95908203    -0.43440
N2448       N  0.51634194  0.68136857  0.95919051    -0.43430
C2449       C  0.33583779  0.60875317  0.98367882     0.00150
C2450       C  0.35473266  0.62660223  0.99204136    -0.11720
C2451       C  0.36708808  0.64323493  0.97449536     0.02390
C2452       C  0.36193979  0.64124870  0.94715509     0.00070
C2453       C  0.34350751  0.62289809  0.93855780    -0.11660
C2454       C  0.33001984  0.60715886  0.95646943     0.02270
H2455       H  0.35935460  0.62842701  0.01275539     0.15250
H2456       H  0.33908193  0.62130605  0.91779453     0.15250
C2457       C  0.30940397  0.59091896  0.94627061     0.36910
C2458       C  0.38351665  0.66312856  0.98597755     0.36810
N2459       N  0.29271521  0.57819652  0.93799238    -0.43440
N2460       N  0.39666220  0.67865238  0.99583646    -0.43430
C2461       C  0.35185727  0.70806531  0.87569792     0.00150
C2462       C  0.32620601  0.71473911  0.88223925    -0.11720
C2463       C  0.31084411  0.73005074  0.86534601     0.02390
C2464       C  0.32095038  0.73832127  0.84087166     0.00070
C2465       C  0.34583536  0.72979590  0.83358845    -0.11660
C2466       C  0.36142148  0.71524619  0.85079610     0.02270
H2467       H  0.31877677  0.70964917  0.90147910     0.15250
H2468       H  0.35346390  0.73533993  0.81464040     0.15250
C2469       C  0.38711435  0.70784876  0.84234023     0.36910
C2470       C  0.28695109  0.74051971  0.87569495     0.36810
N2471       N  0.40772872  0.70200194  0.83555609    -0.43440
N2472       N  0.26823621  0.74914543  0.88477145    -0.43430
C2473       C  0.15631888  0.71911617  0.66056328     0.00150
C2474       C  0.14326669  0.70333325  0.64194632    -0.11720
C2475       C  0.12463794  0.71396117  0.62493599     0.02390
C2476       C  0.12006506  0.74112124  0.62498529     0.00070
C2477       C  0.13488528  0.75729447  0.64138990    -0.11660
C2478       C  0.15260761  0.74665979  0.65935821     0.02270
H2479       H  0.14630447  0.68227850  0.64190233     0.15250
H2480       H  0.13115325  0.77822845  0.64155179     0.15250
C2481       C  0.16473010  0.76449930  0.67759804     0.36910
C2482       C  0.10971800  0.69657711  0.60840630     0.36810
N2483       N  0.17445921  0.77894518  0.69208761    -0.43440
N2484       N  0.09757682  0.68268320  0.59529658    -0.43430
C2485       C  0.14983667  0.73649843  0.45717223     0.00150
C2486       C  0.13426188  0.75850000  0.45217705    -0.11720
C2487       C  0.11695339  0.76766857  0.47112472     0.02390
C2488       C  0.11551236  0.75504651  0.49571444     0.00070
C2489       C  0.13259839  0.73448031  0.50159021    -0.11660
C2490       C  0.14957037  0.72493043  0.48238717     0.02270
H2491       H  0.13423102  0.76732119  0.43278596     0.15250
H2492       H  0.13179290  0.72510460  0.52069192     0.15250
C2493       C  0.16574264  0.70259954  0.48853381     0.36910
C2494       C  0.10019517  0.78945350  0.46454723     0.36810
N2495       N  0.17867581  0.68466820  0.49341899    -0.43440
N2496       N  0.08677042  0.80686718  0.45916370    -0.43430
C2497       C  0.94094564  0.76152726  0.49819124     0.00150
C2498       C  0.93799854  0.77780316  0.47621977    -0.11720
C2499       C  0.92389968  0.76948229  0.45429900     0.02390
C2500       C  0.91290345  0.74411810  0.45407970     0.00070
C2501       C  0.91424708  0.72866791  0.47695789    -0.11660
C2502       C  0.92821538  0.73718704  0.49896105     0.02270
H2503       H  0.94820380  0.79637196  0.47551037     0.15250
H2504       H  0.90580430  0.70919435  0.47696711     0.15250
C2505       C  0.93103658  0.71983732  0.52120099     0.36910
C2506       C  0.92327171  0.78632972  0.43149514     0.36810
N2507       N  0.93337448  0.70595334  0.53903604    -0.43440
N2508       N  0.92272862  0.79988993  0.41327208    -0.43430
C2509       C  0.24499551  0.83129955  0.72355109     0.00150
C2510       C  0.24320995  0.83501459  0.75068701    -0.11720
C2511       C  0.25748246  0.81932824  0.76798267     0.02390
C2512       C  0.27384005  0.79934410  0.75817986     0.00070
C2513       C  0.27555546  0.79545327  0.73097337    -0.11660
C2514       C  0.26134273  0.81140931  0.71360351     0.02270
H2515       H  0.23084654  0.85043966  0.75834937     0.15250
H2516       H  0.28794934  0.78003045  0.72338901     0.15250
C2517       C  0.26371218  0.80711552  0.68570670     0.36910
C2518       C  0.25562158  0.82449531  0.79582582     0.36810
N2519       N  0.26556818  0.80377200  0.66331606    -0.43440
N2520       N  0.25435344  0.82857795  0.81813629    -0.43430
C2521       C  0.16636818  0.85229402  0.66993664     0.00150
C2522       C  0.16938229  0.83637728  0.64788036    -0.11720
C2523       C  0.14885760  0.83189202  0.63062129     0.02390
C2524       C  0.12392632  0.84287365  0.63577430     0.00070
C2525       C  0.12087933  0.85834275  0.65852345    -0.11660
C2526       C  0.14196179  0.86344942  0.67529357     0.02270
H2527       H  0.18841646  0.82842333  0.64340455     0.15250
H2528       H  0.10214797  0.86688348  0.66303559     0.15250
C2529       C  0.13830598  0.88047481  0.69760705     0.36910
C2530       C  0.15470658  0.81623458  0.60770433     0.36810
N2531       N  0.13537888  0.89413171  0.71550586    -0.43440
N2532       N  0.15963349  0.80374763  0.58939715    -0.43430
C2533       C  0.24195668  0.90909592  0.66392982     0.00150
C2534       C  0.25546998  0.92865710  0.67764930    -0.11720
C2535       C  0.26688316  0.94964406  0.66419075     0.02390
C2536       C  0.26481772  0.95109840  0.63657747     0.00070
C2537       C  0.25228849  0.93097849  0.62284455    -0.11660
C2538       C  0.24089172  0.91009037  0.63618554     0.02270
H2539       H  0.25677023  0.92772008  0.69888799     0.15250
H2540       H  0.25104739  0.93180688  0.60158288     0.15250
C2541       C  0.22853991  0.88976672  0.62084377     0.36910
C2542       C  0.28140229  0.96883737  0.67897125     0.36810
N2543       N  0.21853598  0.87357422  0.60855579    -0.43440
N2544       N  0.29319752  0.98409749  0.69081493    -0.43430
C2545       C  0.23739980  0.84361937  0.40611583     0.00150
C2546       C  0.24224174  0.81704775  0.41126438    -0.11720
C2547       C  0.25581271  0.80131652  0.39331908     0.02390
C2548       C  0.26438155  0.81207437  0.36908831     0.00070
C2549       C  0.25863334  0.83854740  0.36378222    -0.11660
C2550       C  0.24580107  0.85439681  0.38213019     0.02270
H2551       H  0.23615454  0.80877710  0.42988633     0.15250
H2552       H  0.26413573  0.84684773  0.34504296     0.15250
C2553       C  0.24105935  0.88156843  0.37571485     0.36910
C2554       C  0.26252311  0.77514146  0.40172079     0.36810
N2555       N  0.23732761  0.90337892  0.37063038    -0.43440
N2556       N  0.26821854  0.75458487  0.40951281    -0.43430
C2557       C  0.16258529  0.85906649  0.46704694     0.00150
C2558       C  0.13959809  0.87353590  0.46394512    -0.11720
C2559       C  0.11781944  0.86851838  0.47975351     0.02390
C2560       C  0.11918037  0.84907461  0.49962273     0.00070
C2561       C  0.14217785  0.83413667  0.50180681    -0.11660
C2562       C  0.16361264  0.83897294  0.48590830     0.02270
H2563       H  0.13895155  0.88929885  0.44964933     0.15250
H2564       H  0.14373313  0.81858201  0.51625510     0.15250
C2565       C  0.18707422  0.82406107  0.49041719     0.36910
C2566       C  0.09485948  0.88415636  0.47547351     0.36810
N2567       N  0.20592410  0.81225164  0.49407869    -0.43440
N2568       N  0.07654151  0.89677519  0.47174641    -0.43430
C2569       C  0.26395948  0.95336490  0.50583981     0.00150
C2570       C  0.25252776  0.93170772  0.51812039    -0.11720
C2571       C  0.24089509  0.91184870  0.50334990     0.02390
C2572       C  0.24039839  0.91353882  0.47558940     0.00070
C2573       C  0.25319230  0.93444510  0.46325493    -0.11660
C2574       C  0.26503523  0.95425547  0.47813731     0.02270
H2575       H  0.25221944  0.93055039  0.53939571     0.15250
H2576       H  0.25347923  0.93557232  0.44199262     0.15250
C2577       C  0.27901962  0.97468593  0.46460393     0.36910
C2578       C  0.22985586  0.88983180  0.51725966     0.36810
N2579       N  0.29046907  0.99089802  0.45377101    -0.43440
N2580       N  0.22095027  0.87228748  0.52847344    -0.43430
C2581       C  0.89901103  0.63992288  0.85666839     0.00150
C2582       C  0.92448579  0.64355175  0.86525974    -0.11720
C2583       C  0.94449609  0.62741154  0.85627418     0.02390
C2584       C  0.93905494  0.60697802  0.83805706     0.00070
C2585       C  0.91331429  0.60373658  0.82932866    -0.11660
C2586       C  0.89337468  0.61984504  0.83860142     0.02270
H2587       H  0.92859552  0.65866416  0.87968194     0.15250
H2588       H  0.90857026  0.58842503  0.81535989     0.15250
C2589       C  0.86706184  0.61451366  0.83045739     0.36910
C2590       C  0.97004570  0.63214990  0.86693363     0.36810
N2591       N  0.84593087  0.61020872  0.82412487    -0.43440
N2592       N  0.99039729  0.63617347  0.87565295    -0.43430
C2593       C  0.84023030  0.64387773  0.93099063     0.00150
C2594       C  0.82979415  0.61903775  0.92658001    -0.11720
C2595       C  0.82356917  0.60254818  0.94735589     0.02390
C2596       C  0.82723028  0.61114460  0.97366081     0.00070
C2597       C  0.83732567  0.63649762  0.97797145    -0.11660
C2598       C  0.84397741  0.65280379  0.95682213     0.02270
H2599       H  0.82741801  0.61209984  0.90655477     0.15250
H2600       H  0.84013704  0.64361463  0.99782993     0.15250
C2601       C  0.85515436  0.67822083  0.96196006     0.36910
C2602       C  0.81454721  0.57661801  0.94050410     0.36810
N2603       N  0.86413300  0.69860609  0.96604981    -0.43440
N2604       N  0.80740507  0.55590279  0.93473147    -0.43430
C2605       C  0.83971930  0.36709325  0.86690284     0.00150
C2606       C  0.82547120  0.34890000  0.88184472    -0.11720
C2607       C  0.81081344  0.32904317  0.86960069     0.02390
C2608       C  0.80840068  0.32852822  0.84186462     0.00070
C2609       C  0.82904580  0.34064634  0.82862329    -0.11660
C2610       C  0.84177247  0.36218423  0.83960278     0.02270
H2611       H  0.82675519  0.34935038  0.90309170     0.15250
H2612       H  0.83432919  0.33489038  0.80904359     0.15250
C2613       C  0.85390343  0.38016725  0.82152184     0.36910
C2614       C  0.80639322  0.30567166  0.88481776     0.36810
N2615       N  0.86319297  0.39482531  0.80698623    -0.43440
N2616       N  0.80449299  0.28678427  0.89727788    -0.43430
C2617       C  0.90700056  0.43759038  0.86615466     0.00150
C2618       C  0.89951042  0.45091858  0.84328322    -0.11720
C2619       C  0.91637017  0.46842235  0.83083748     0.02390
C2620       C  0.94163971  0.47234030  0.84106903     0.00070
C2621       C  0.94912402  0.45835822  0.86378421    -0.11660
C2622       C  0.93198498  0.44136334  0.87645530     0.02270
H2623       H  0.88000076  0.44834639  0.83568831     0.15250
H2624       H  0.96832304  0.46104052  0.87207449     0.15250
C2625       C  0.94028825  0.42818209  0.90013381     0.36910
C2626       C  0.90686398  0.48210298  0.80792376     0.36810
N2627       N  0.94688305  0.41761475  0.91912842    -0.43440
N2628       N  0.89884723  0.49310439  0.78974771    -0.43430
C2629       C  0.84190680  0.43830548  0.93600683     0.00150
C2630       C  0.82119233  0.45543717  0.93139337    -0.11720
C2631       C  0.81342311  0.47352474  0.95052544     0.02390
C2632       C  0.82634762  0.47432520  0.97519391     0.00070
C2633       C  0.84651342  0.45624015  0.97992300    -0.11660
C2634       C  0.85448075  0.43857769  0.96055456     0.02270
H2635       H  0.81184082  0.45549150  0.91228416     0.15250
H2636       H  0.85669352  0.45631340  0.99857687     0.15250
C2637       C  0.87619619  0.42144253  0.96594220     0.36910
C2638       C  0.79218034  0.49079943  0.94391347     0.36810
N2639       N  0.89363557  0.40775058  0.97017422    -0.43440
N2640       N  0.77505318  0.50438433  0.93825295    -0.43430
C2641       C  0.82998550  0.92982309  0.68733751     0.00150
C2642       C  0.80856908  0.92713258  0.67068882    -0.11720
C2643       C  0.79910020  0.94864605  0.65672883     0.02390
C2644       C  0.81046936  0.97358244  0.66025348     0.00070
C2645       C  0.83022523  0.97679805  0.67891032    -0.11660
C2646       C  0.84033468  0.95496499  0.69222070     0.02270
H2647       H  0.80074243  0.90776629  0.66681185     0.15250
H2648       H  0.83923432  0.99585195  0.68136918     0.15250
C2649       C  0.86220213  0.95848600  0.70960107     0.36910
C2650       C  0.77961403  0.94402719  0.63685783     0.36810
N2651       N  0.87975131  0.96128357  0.72351628    -0.43440
N2652       N  0.76438804  0.93998256  0.62064550    -0.43430
C2653       C  0.90417980  0.86747414  0.67503571     0.00150
C2654       C  0.90953036  0.84067643  0.67099765    -0.11720
C2655       C  0.93123978  0.83248447  0.65684449     0.02390
C2656       C  0.94651445  0.85075093  0.64325140     0.00070
C2657       C  0.94245020  0.87748421  0.64805003    -0.11660
C2658       C  0.92231007  0.88592390  0.66470676     0.02270
H2659       H  0.89716826  0.82566085  0.67917281     0.15250
H2660       H  0.95529135  0.89175547  0.63914682     0.15250
C2661       C  0.92205350  0.91330110  0.67195476     0.36910
C2662       C  0.94001874  0.80597551  0.66050901     0.36810
N2663       N  0.92206179  0.93525820  0.67773548    -0.43440
N2664       N  0.94782244  0.78533921  0.66555646    -0.43430
C2665       C  0.83786485  0.85570472  0.39185052     0.00150
C2666       C  0.84712076  0.85504023  0.36604992    -0.11720
C2667       C  0.83399754  0.84086727  0.34659614     0.02390
C2668       C  0.81160302  0.82632675  0.35301792     0.00070
C2669       C  0.80285956  0.82635643  0.37909505    -0.11660
C2670       C  0.81537086  0.84144996  0.39832098     0.02270
H2671       H  0.86439146  0.86604498  0.36100928     0.15250
H2672       H  0.78616882  0.81474955  0.38444777     0.15250
C2673       C  0.80471456  0.84220913  0.42447986     0.36910
C2674       C  0.84374182  0.84197973  0.32012084     0.36810
N2675       N  0.79601452  0.84299419  0.44538421    -0.43440
N2676       N  0.85192823  0.84323778  0.29904184    -0.43430
C2677       C  0.84351948  0.93212978  0.45305348     0.00150
C2678       C  0.84950296  0.95803685  0.44606069    -0.11720
C2679       C  0.84328354  0.97890191  0.46291928     0.02390
C2680       C  0.83146770  0.97363787  0.48735804     0.00070
C2681       C  0.82470632  0.94776035  0.49369668    -0.11660
C2682       C  0.83054278  0.92712310  0.47681811     0.02270
H2683       H  0.86004528  0.96180018  0.42805491     0.15250
H2684       H  0.81497134  0.94357370  0.51209009     0.15250
C2685       C  0.82448408  0.90070043  0.48503396     0.36910
C2686       C  0.85063563  0.00517026  0.45547882     0.36810
N2687       N  0.81981832  0.87952078  0.49166467    -0.43440
N2688       N  0.85658313  0.02622601  0.44954474    -0.43430
C2689       C  0.90859531  0.86408262  0.45889603     0.00150
C2690       C  0.90126656  0.84648632  0.47862799    -0.11720
C2691       C  0.91849664  0.83945391  0.49874772     0.02390
C2692       C  0.94405613  0.84976082  0.49903261     0.00070
C2693       C  0.95139435  0.86691185  0.47860437    -0.11660
C2694       C  0.93390323  0.87427857  0.45888652     0.02270
H2695       H  0.88151645  0.83918644  0.47900263     0.15250
H2696       H  0.97078092  0.87508526  0.47818071     0.15250
C2697       C  0.94210800  0.89282353  0.43914514     0.36910
C2698       C  0.90904709  0.82173524  0.51864121     0.36810
N2699       N  0.94864855  0.90771533  0.42334702    -0.43440
N2700       N  0.90116140  0.80755861  0.53446400    -0.43430
C2701       C  0.36710572  0.92944444  0.44879265     0.00150
C2702       C  0.36006516  0.91708609  0.47243076    -0.11720
C2703       C  0.35277158  0.93194725  0.49460414     0.02390
C2704       C  0.35377508  0.95975303  0.49366346     0.00070
C2705       C  0.35931095  0.97170481  0.46946356    -0.11660
C2706       C  0.36510325  0.95711941  0.44723619     0.02270
H2707       H  0.36036701  0.89585913  0.47366011     0.15250
H2708       H  0.35859586  0.99286978  0.46744755     0.15250
C2709       C  0.36806542  0.97144675  0.42287912     0.36910
C2710       C  0.34353671  0.91808690  0.51741916     0.36810
N2711       N  0.37061109  0.98302420  0.40350540    -0.43440
N2712       N  0.33555947  0.90682068  0.53538800    -0.43430
C2713       C  0.41769645  0.93347180  0.36894139     0.00150
C2714       C  0.40712324  0.95101435  0.35054038    -0.11720
C2715       C  0.42230205  0.97102116  0.33951874     0.02390
C2716       C  0.44862948  0.97359350  0.34702505     0.00070
C2717       C  0.45914505  0.95507436  0.36474524    -0.11660
C2718       C  0.44407092  0.93525682  0.37556366     0.02270
H2719       H  0.38665228  0.94984967  0.34575271     0.15250
H2720       H  0.47926714  0.95622218  0.37082489     0.15250
C2721       C  0.45592967  0.91744110  0.39416801     0.36910
C2722       C  0.41014368  0.98860997  0.32100426     0.36810
N2723       N  0.46542671  0.90325323  0.40911902    -0.43440
N2724       N  0.40023912  0.00267133  0.30620595    -0.43430
C2725       C  0.35415598  0.85889971  0.37907796     0.00150
C2726       C  0.33035414  0.85096763  0.38996300    -0.11720
C2727       C  0.31788552  0.82847219  0.38091168     0.02390
C2728       C  0.32304395  0.81957391  0.35528590     0.00070
C2729       C  0.34869058  0.82368212  0.34669724    -0.11660
C2730       C  0.36449571  0.84273095  0.35873313     0.02270
H2731       H  0.32262037  0.86001444  0.40741922     0.15250
H2732       H  0.35602933  0.81316610  0.32980376     0.15250
C2733       C  0.39107321  0.84441959  0.35007469     0.36910
C2734       C  0.31393723  0.80931598  0.40126736     0.36810
N2735       N  0.41235561  0.84562837  0.34302289    -0.43440
N2736       N  0.31282195  0.79444922  0.41839899    -0.43430
C2737       C  0.90815815  0.35103005  0.46551741     0.00150
C2738       C  0.92626572  0.33191038  0.45818047    -0.11720
C2739       C  0.94404041  0.32196928  0.47631859     0.02390
C2740       C  0.94309156  0.33025412  0.50272904     0.00070
C2741       C  0.92366282  0.34794610  0.51057705    -0.11660
C2742       C  0.90661051  0.35889662  0.49198739     0.02270
H2743       H  0.92779647  0.32623992  0.43769841     0.15250
H2744       H  0.92291896  0.35447723  0.53082711     0.15250
C2745       C  0.88891248  0.37929750  0.50004329     0.36910
C2746       C  0.96399783  0.30449488  0.46689792     0.36810
N2747       N  0.87481325  0.39576535  0.50645511    -0.43440
N2748       N  0.98021883  0.29093725  0.45903147    -0.43430
C2749       C  0.91918362  0.41895405  0.39759442     0.00150
C2750       C  0.92441663  0.42027295  0.37054175    -0.11720
C2751       C  0.94164466  0.43904739  0.36034758     0.02390
C2752       C  0.95574049  0.45566311  0.37731906     0.00070
C2753       C  0.94956886  0.45537835  0.40409306    -0.11660
C2754       C  0.93100991  0.43801567  0.41415562     0.02270
H2755       H  0.91486745  0.40688196  0.35715016     0.15250
H2756       H  0.95895879  0.46921426  0.41719993     0.15250
C2757       C  0.92375074  0.44117005  0.44137270     0.36910
C2758       C  0.94136486  0.44347304  0.33250879     0.36810
N2759       N  0.91799544  0.44373663  0.46317495    -0.43440
N2760       N  0.93942412  0.44767339  0.31031622    -0.43430
C2761       C  0.84673481  0.35002415  0.39024155     0.00150
C2762       C  0.83262239  0.36268659  0.37015529    -0.11720
C2763       C  0.81855074  0.34837129  0.35108295     0.02390
C2764       C  0.81880262  0.32029469  0.35135660     0.00070
C2765       C  0.82649051  0.30911326  0.37541755    -0.11660
C2766       C  0.84234547  0.32261473  0.39323135     0.02270
H2767       H  0.83329335  0.38387781  0.36863791     0.15250
H2768       H  0.82167747  0.28912486  0.38008329     0.15250
C2769       C  0.85540599  0.30661701  0.41257481     0.36910
C2770       C  0.80490437  0.36353444  0.33151498     0.36810
N2771       N  0.86575940  0.29367594  0.42806541    -0.43440
N2772       N  0.79449368  0.37644946  0.31603565    -0.43430
C2773       C  0.44379847  0.34745197  0.00484134     0.00150
C2774       C  0.41972873  0.33453775  0.00398331    -0.11720
C2775       C  0.40118199  0.34087974  0.98495721     0.02390
C2776       C  0.40667832  0.36024269  0.96604310     0.00070
C2777       C  0.43093709  0.37245735  0.96614143    -0.11660
C2778       C  0.44939512  0.36650513  0.98532674     0.02270
H2779       H  0.41516116  0.31960568  0.01841320     0.15250
H2780       H  0.43486763  0.38786547  0.95199237     0.15250
C2781       C  0.47309254  0.38157330  0.98511045     0.36910
C2782       C  0.37603085  0.32862641  0.98651973     0.36810
N2783       N  0.49193861  0.39385792  0.98475389    -0.43440
N2784       N  0.35588383  0.31882272  0.98807845    -0.43430
C2785       C  0.34379839  0.43076608  0.96226295     0.00150
C2786       C  0.33799229  0.45447291  0.94948844    -0.11720
C2787       C  0.32936165  0.47634878  0.96387968     0.02390
C2788       C  0.32674179  0.47444359  0.99150764     0.00070
C2789       C  0.33171633  0.45024309  0.00373871    -0.11660
C2790       C  0.33989529  0.42862892  0.98955743     0.02270
H2791       H  0.34077797  0.45604286  0.92844809     0.15250
H2792       H  0.32886732  0.44784343  0.02469410     0.15250
C2793       C  0.34401955  0.40434296  0.00370729     0.36910
C2794       C  0.32397178  0.50037197  0.94988283     0.36810
N2795       N  0.34753363  0.38501252  0.01510262    -0.43440
N2796       N  0.31958720  0.51955803  0.93854588    -0.43430
C2797       C  0.33632364  0.35706267  0.89831669     0.00150
C2798       C  0.34015283  0.36675847  0.87296538    -0.11720
C2799       C  0.32922542  0.35415605  0.85137098     0.02390
C2800       C  0.31399969  0.33148356  0.85506953     0.00070
C2801       C  0.30984532  0.32190787  0.88050579    -0.11660
C2802       C  0.32085111  0.33462340  0.90219078     0.02270
H2803       H  0.35219279  0.38394291  0.87002988     0.15250
H2804       H  0.29806148  0.30455271  0.88334717     0.15250
C2805       C  0.31546707  0.32478859  0.92815674     0.36910
C2806       C  0.33474701  0.36437410  0.82556347     0.36810
N2807       N  0.31080395  0.31691215  0.94891724    -0.43440
N2808       N  0.33940892  0.37286147  0.80505028    -0.43430
C2809       C  0.79635326  0.81203924  0.76478783     0.00150
C2810       C  0.79927477  0.80722252  0.73783680    -0.11720
C2811       C  0.81535430  0.82327190  0.72246197     0.02390
C2812       C  0.82854093  0.84462004  0.73406663     0.00070
C2813       C  0.82579369  0.84921334  0.76097509    -0.11660
C2814       C  0.81016335  0.83301149  0.77638704     0.02270
H2815       H  0.78894733  0.79102420  0.72885293     0.15250
H2816       H  0.83586020  0.86560635  0.76993913     0.15250
C2817       C  0.80920843  0.83796702  0.80426000     0.36910
C2818       C  0.81751859  0.81798166  0.69472163     0.36810
N2819       N  0.80877338  0.84211960  0.82657760    -0.43440
N2820       N  0.81931786  0.81377395  0.67247370    -0.43430
C2821       C  0.79364677  0.73814357  0.82641169     0.00150
C2822       C  0.81256563  0.74742547  0.84390436    -0.11720
C2823       C  0.82811121  0.73003453  0.85811408     0.02390
C2824       C  0.82485036  0.70285717  0.85478522     0.00070
C2825       C  0.80591528  0.69346671  0.83733071    -0.11660
C2826       C  0.79019537  0.71094609  0.82318172     0.02270
H2827       H  0.81516622  0.76839812  0.84639781     0.15250
H2828       H  0.80346871  0.67249211  0.83479240     0.15250
C2829       C  0.77091336  0.70060681  0.80546591     0.36910
C2830       C  0.84749574  0.74045117  0.87573426     0.36810
N2831       N  0.75553132  0.69214808  0.79124041    -0.43440
N2832       N  0.86304869  0.74878811  0.88984369    -0.43430
C2833       C  0.72535053  0.80668826  0.82989953     0.00150
C2834       C  0.69961546  0.80763589  0.82098671    -0.11720
C2835       C  0.68061872  0.82112819  0.83534390     0.02390
C2836       C  0.68734194  0.83390794  0.85898219     0.00070
C2837       C  0.71303806  0.83307927  0.86779745    -0.11660
C2838       C  0.73202956  0.81970758  0.85346083     0.02270
H2839       H  0.69436337  0.79767307  0.80294540     0.15250
H2840       H  0.71817842  0.84264018  0.88610432     0.15250
C2841       C  0.75821495  0.81943478  0.86351324     0.36910
C2842       C  0.65425389  0.82121533  0.82578902     0.36810
N2843       N  0.77908112  0.81907706  0.87190465    -0.43440
N2844       N  0.63309973  0.82128995  0.81816504    -0.43430
C2845       C  0.70879352  0.94232755  0.69059520     0.00150
C2846       C  0.72249194  0.96440233  0.69905153    -0.11720
C2847       C  0.73055380  0.98361213  0.68115843     0.02390
C2848       C  0.72479298  0.98086349  0.65392876     0.00070
C2849       C  0.71095579  0.95847902  0.64575664    -0.11660
C2850       C  0.70306559  0.93935615  0.66374173     0.02270
H2851       H  0.72637144  0.96691251  0.71984928     0.15250
H2852       H  0.70633890  0.95569423  0.62516865     0.15250
C2853       C  0.68890797  0.91683352  0.65426611     0.36910
C2854       C  0.74454590  0.00576277  0.69170887     0.36810
N2855       N  0.67760915  0.89873295  0.64673856    -0.43440
N2856       N  0.75566918  0.02348928  0.70033819    -0.43430
C2857       C  0.63132517  0.91967241  0.74336736     0.00150
C2858       C  0.61589958  0.93460061  0.72589545    -0.11720
C2859       C  0.59600253  0.95086456  0.73508545     0.02390
C2860       C  0.58974804  0.95088755  0.76193626     0.00070
C2861       C  0.60101542  0.93176857  0.77818741    -0.11660
C2862       C  0.62218941  0.91674261  0.76950643     0.02270
H2863       H  0.62068603  0.93526654  0.70519257     0.15250
H2864       H  0.59492524  0.93031844  0.79849170     0.15250
C2865       C  0.63474286  0.89999817  0.78850301     0.36910
C2866       C  0.58265491  0.96770030  0.71667304     0.36810
N2867       N  0.64456925  0.88618256  0.80358651    -0.43440
N2868       N  0.57194723  0.98104256  0.70178312    -0.43430
C2869       C  0.71388954  0.86614801  0.75266907     0.00150
C2870       C  0.71104260  0.83991400  0.74503886    -0.11720
C2871       C  0.72532278  0.82001788  0.75745185     0.02390
C2872       C  0.74235265  0.82615904  0.77832273     0.00070
C2873       C  0.74499273  0.85236916  0.78618160    -0.11660
C2874       C  0.73121637  0.87237252  0.77328208     0.02270
H2875       H  0.69782112  0.83502317  0.72919728     0.15250
H2876       H  0.75773535  0.85719358  0.80240643     0.15250
C2877       C  0.73491445  0.89914657  0.78167590     0.36910
C2878       C  0.72207951  0.79331916  0.74860778     0.36810
N2879       N  0.73793610  0.92064246  0.78828596    -0.43440
N2880       N  0.71957814  0.77192448  0.74147386    -0.43430
C2881       C  0.93546181  0.60986393  0.74177828     0.00150
C2882       C  0.91852375  0.60479521  0.72079924    -0.11720
C2883       C  0.90021249  0.62367704  0.71286850     0.02390
C2884       C  0.89805463  0.64763153  0.72671600     0.00070
C2885       C  0.91400067  0.65184128  0.74867221    -0.11660
C2886       C  0.93290219  0.63348701  0.75594025     0.02270
H2887       H  0.92041703  0.58663308  0.70987691     0.15250
H2888       H  0.91301678  0.67042932  0.75899766     0.15250
C2889       C  0.95036439  0.64000375  0.77714491     0.36910
C2890       C  0.88462325  0.61857257  0.68985787     0.36810
N2891       N  0.96449124  0.64555133  0.79392085    -0.43440
N2892       N  0.87226012  0.61455140  0.67130271    -0.43430
C2893       C  0.90654008  0.71983476  0.66603679     0.00150
C2894       C  0.93307696  0.71583337  0.67027558    -0.11720
C2895       C  0.95170781  0.72536383  0.65307661     0.02390
C2896       C  0.94420688  0.74059434  0.63088495     0.00070
C2897       C  0.91740081  0.74473148  0.62658037    -0.11660
C2898       C  0.89862555  0.73440004  0.64385661     0.02270
H2899       H  0.93944765  0.70504692  0.68752214     0.15250
H2900       H  0.91104719  0.75628802  0.60988645     0.15250
C2901       C  0.87151105  0.73850971  0.63816734     0.36910
C2902       C  0.97831002  0.71957028  0.65995685     0.36810
N2903       N  0.84975332  0.74176149  0.63357971    -0.43440
N2904       N  0.99938495  0.71452722  0.66598026    -0.43430
C2905       C  0.84180378  0.72669203  0.73978945     0.00150
C2906       C  0.85177138  0.74607090  0.75664039    -0.11720
C2907       C  0.83537034  0.76020242  0.77359790     0.02390
C2908       C  0.80841875  0.75546055  0.77333132     0.00070
C2909       C  0.79854773  0.73617262  0.75637186    -0.11660
C2910       C  0.81495445  0.72158843  0.74000889     0.02270
H2911       H  0.87246930  0.74976275  0.75692047     0.15250
H2912       H  0.77784746  0.73247182  0.75598066     0.15250
C2913       C  0.80381658  0.70146591  0.72356500     0.36910
C2914       C  0.84668085  0.77889795  0.79147674     0.36810
N2915       N  0.79491313  0.68525219  0.71046890    -0.43440
N2916       N  0.85594067  0.79374587  0.80587611    -0.43430
C2917       C  0.59886549  0.72586075  0.97975421     0.00150
C2918       C  0.59338585  0.70673081  0.96071284    -0.11720
C2919       C  0.61208054  0.69964657  0.94193365     0.02390
C2920       C  0.63626167  0.71264781  0.94132391     0.00070
C2921       C  0.64092957  0.73295618  0.95930185    -0.11660
C2922       C  0.62274095  0.73930479  0.97866383     0.02270
H2923       H  0.57498383  0.69649143  0.96127964     0.15250
H2924       H  0.65963487  0.74266186  0.95938431     0.15250
C2925       C  0.62934187  0.75927554  0.99762139     0.36910
C2926       C  0.60650947  0.67830130  0.92419691     0.36810
N2927       N  0.63476227  0.77519416  0.01285816    -0.43440
N2928       N  0.60207925  0.66109372  0.91007540    -0.43430
C2929       C  0.70731103  0.65051884  0.94873512     0.00150
C2930       C  0.70010786  0.65026078  0.97532438    -0.11720
C2931       C  0.70891531  0.63107766  0.99261765     0.02390
C2932       C  0.72743267  0.61228148  0.98426379     0.00070
C2933       C  0.73509296  0.61256080  0.95767975    -0.11660
C2934       C  0.72494053  0.63115236  0.93986840     0.02270
H2935       H  0.68711114  0.66519332  0.98288244     0.15250
H2936       H  0.74910375  0.59829117  0.95073244     0.15250
C2937       C  0.73243381  0.62936448  0.91265356     0.36910
C2938       C  0.69750135  0.63103378  0.01852785     0.36810
N2939       N  0.73852154  0.62785752  0.89084753    -0.43440
N2940       N  0.68796966  0.63113400  0.03907767    -0.43430
C2941       C  0.71362255  0.72453039  0.88264360     0.00150
C2942       C  0.70565597  0.72427995  0.85629756    -0.11720
C2943       C  0.71929200  0.73834602  0.83712048     0.02390
C2944       C  0.74132084  0.75322370  0.84412829     0.00070
C2945       C  0.74937035  0.75343891  0.87050184    -0.11660
C2946       C  0.73563177  0.73939593  0.88973943     0.02270
H2947       H  0.68885059  0.71280840  0.85065445     0.15250
H2948       H  0.76628500  0.76470683  0.87610110     0.15250
C2949       C  0.74387168  0.74120937  0.91676768     0.36910
C2950       C  0.71064026  0.73675343  0.81020037     0.36810
N2951       N  0.75029677  0.74275248  0.93849631    -0.43440
N2952       N  0.70374360  0.73527538  0.78861978    -0.43430
loop_ 
_geom_bond_atom_site_label_1 
_geom_bond_atom_site_label_2 
_geom_bond_distance 
_geom_bond_site_symmetry_2 
_ccdc_geom_bond_type 
C1            C2   1.405       .  A
C1            C6   1.396       .  A
C1         C2920   1.486       .  S
C2            C3   1.409       .  A
C2            H7   1.084       .  S
C3            C4   1.411       .  A
C3         C2941   1.489       .  S
C4            C5   1.411       .  A
C4            H8   1.082       .  S
C5            C6   1.406       .  A
C5         C2929   1.500       .  S
C6            H9   1.084       .  S
C10          C11   1.408       .  A
C10          C15   1.411       .  A
C10        C2905   1.487       .  S
C11          C12   1.405       .  A
C11          H16   1.084       .  S
C12          C13   1.396       .  A
C12        C2884   1.486       .  S
C13          C14   1.403       .  A
C13          H17   1.085       .  S
C14          C15   1.409       .  A
C14        C2893   1.491       .  S
C15          H18   1.083       .  S
C19          C20   1.398       .  A
C19          C24   1.394       .  A
C19        C2845   1.475       .  S
C20          C21   1.404       .  A
C20          H25   1.084       .  S
C21          C22   1.410       .  A
C21        C2869   1.484       .  S
C22          C23   1.415       .  A
C22          H26   1.079       .  S
C23          C24   1.409       .  A
C23        C2857   1.510       .  S
C24          H27   1.083       .  S
C28          C29   1.414       .  A
C28          C33   1.415       .  A
C28        C2944   1.498       .  S
C29          C30   1.414       .  A
C29        C2821   1.479       .  S
C30          C31   1.412       .  A
C30        C2908   1.496       .  S
C31          C32   1.414       .  A
C31        C2809   1.490       .  S
C32          C33   1.414       .  A
C32        C2872   1.491       .  S
C33        C2833   1.490       .  S
C34          C35   1.399       .  A
C34          C39   1.394       .  A
C34        C2776   1.471       .  S
C35          C36   1.404       .  A
C35          H40   1.084       .  S
C36          C37   1.405       .  A
C36        C2797   1.468       .  S
C37          C38   1.399       .  A
C37          H41   1.084       .  S
C38          C39   1.396       .  A
C38        C2785   1.474       .  S
C39          H42   1.085       .  S
C43          C44   1.427       .  A
C43          C48   1.414       .  A
C43        C2761   1.522       .  S
C44          C45   1.421       .  A
C44          H49   1.081       .  S
C45          C46   1.399       .  A
C45        C2749   1.507       .  S
C46          C47   1.390       .  A
C46          H50   1.084       .  S
C47          C48   1.397       .  A
C47        C2737   1.474       .  S
C48          H51   1.079       .  S
C52          C53   1.398       .  A
C52          C57   1.390       .  A
C52        C2713   1.473       .  S
C53          C54   1.413       .  A
C53          H58   1.081       .  S
C54          C55   1.426       .  A
C54        C2725   1.511       .  S
C55          C56   1.407       .  A
C55          H59   1.077       .  S
C56          C57   1.394       .  A
C56        C2701   1.494       .  S
C57          H60   1.085       .  S
C61          C62   1.395       .  A
C61          C66   1.402       .  A
C61        C2677   1.470       .  S
C62          C63   1.394       .  A
C62          H67   1.086       .  S
C63          C64   1.403       .  A
C63        C2689   1.474       .  S
C64          C65   1.407       .  A
C64          H68   1.084       .  S
C65          C66   1.407       .  A
C65        C2665   1.478       .  S
C66          H69   1.084       .  S
C70          C71   1.397       .  A
C70          C75   1.407       .  A
C70        C2812   1.481       .  S
C71          C72   1.394       .  A
C71          H76   1.085       .  S
C72          C73   1.401       .  A
C72        C2641   1.473       .  S
C73          C74   1.409       .  A
C73          H77   1.080       .  S
C74          C75   1.420       .  A
C74        C2653   1.513       .  S
C75          H78   1.081       .  S
C79          C80   1.390       .  A
C79          C84   1.397       .  A
C79        C2617   1.472       .  S
C80          C81   1.394       .  A
C80          H85   1.085       .  S
C81          C82   1.406       .  A
C81        C2629   1.473       .  S
C82          C83   1.415       .  A
C82          H86   1.083       .  S
C83          C84   1.413       .  A
C83        C2605   1.504       .  S
C84          H87   1.080       .  S
C88          C89   1.400       .  A
C88          C93   1.394       .  A
C88        C2581   1.470       .  S
C89          C90   1.403       .  A
C89          H94   1.084       .  S
C90          C91   1.404       .  A
C90        C2824   1.471       .  S
C91          C92   1.401       .  A
C91          H95   1.084       .  S
C92          C93   1.396       .  A
C92        C2593   1.468       .  S
C93          H96   1.085       .  S
C97          C98   1.404       .  A
C97         C102   1.395       .  A
C97        C2557   1.477       .  S
C98          C99   1.408       .  A
C98         H103   1.084       .  S
C99         C100   1.409       .  A
C99        C2545   1.486       .  S
C100        C101   1.406       .  A
C100        H104   1.084       .  S
C101        C102   1.400       .  A
C101       C2572   1.485       .  S
C102        H105   1.085       .  S
C106        C107   1.396       .  A
C106        C111   1.404       .  A
C106       C2521   1.474       .  S
C107        C108   1.399       .  A
C107        H112   1.085       .  S
C108        C109   1.403       .  A
C108       C2533   1.479       .  S
C109        C110   1.404       .  A
C109        H113   1.084       .  S
C110        C111   1.406       .  A
C110       C2509   1.478       .  S
C111        H114   1.082       .  S
O115       Zr127   2.428   1_655  S
O115        C117   1.285       .  A
O116       Zr153   2.446       .  S
O116        C117   1.290       .  A
C117       C2896   1.502       .  S
O118       Zr130   2.474       .  S
O118        C120   1.293       .  A
O119       Zr154   2.393       .  S
O119        C120   1.279       .  A
C120       C2524   1.496       .  S
O121       Zr130   2.454   1_655  S
O121        C123   1.289       .  A
O122       Zr153   2.436       .  S
O122        C123   1.289       .  A
C123       C2656   1.484       .  S
O124       Zr127   2.451       .  S
O124        C126   1.290       .  A
O125       Zr154   2.410       .  S
O125        C126   1.283       .  A
C126       C2476   1.472       .  S
Zr127       O128   2.433       .  S
Zr127       O129   2.435       .  S
Zr127       O133   2.376       .  S
Zr127       O134   2.358       .  S
Zr127       O157   2.368       .  S
Zr127       O159   2.373       .  S
O128        H171   0.990       .  S
O129        H170   0.990       .  S
O129        H174   0.990       .  S
Zr130       O131   2.436       .  S
Zr130       O132   2.435       .  S
Zr130       O134   2.374       .  S
Zr130       O133   2.383       .  S
Zr130       O158   2.388       .  S
Zr130       O160   2.382       .  S
O131        H172   0.990       .  S
O131        H175   0.990       .  S
O132        H165   0.990       .  S
O133       Zr153   2.376   1_455  S
O134       Zr154   2.372       .  S
O134        H161   0.965       .  S
O135       Zr147   2.454       .  S
O135        C137   1.289       .  A
O136       Zr154   2.407       .  S
O136        C137   1.281       .  A
C137       C2488   1.466       .  S
O138       Zr150   2.439   1_655  S
O138        C140   1.288       .  A
O139       Zr153   2.431       .  S
O139        C140   1.288       .  A
C140       C2692   1.495       .  S
O141       Zr150   2.479       .  S
O141        C143   1.293       .  A
O142       Zr154   2.397       .  S
O142        C143   1.283       .  A
C143       C2560   1.496       .  S
O144       Zr147   2.432   1_655  S
O144        C146   1.285       .  A
O145       Zr153   2.423       .  S
O145        C146   1.285       .  A
C146       C2497   1.465       .  S
Zr147       O148   2.437       .  S
Zr147       O149   2.434       .  S
Zr147       O155   2.361       .  S
Zr147       O156   2.367       .  S
Zr147       O159   2.370       .  S
Zr147       O157   2.366       .  S
O148        H168   0.990       .  S
O148        H173   0.990       .  S
O149        H169   0.990       .  S
Zr150       O151   2.434       .  S
Zr150       O152   2.433       .  S
Zr150       O156   2.373       .  S
Zr150       O155   2.365       .  S
Zr150       O160   2.372       .  S
Zr150       O158   2.388       .  S
O151        H167   0.990       .  S
O152        H166   0.990       .  S
O152        H176   0.990       .  S
Zr153       O156   2.381   1_655  S
Zr153       O158   2.401   1_655  S
Zr153       O159   2.391   1_655  S
Zr154       O155   2.377       .  S
Zr154       O157   2.376       .  S
Zr154       O160   2.383       .  S
O155        H163   0.964       .  S
O158        H162   0.967   1_455  S
O159        H164   0.966   1_455  S
C177        C178   1.407       .  A
C177        C182   1.412       .  A
C177       C2461   1.489       .  S
C178        C179   1.406       .  A
C178        H183   1.083       .  S
C179        C180   1.396       .  A
C179       C2452   1.489       .  S
C180        C181   1.393       .  A
C180        H184   1.084       .  S
C181        C182   1.406       .  A
C181       C2437   1.479       .  S
C182        H185   1.084       .  S
C186        C187   1.409       .  A
C186        C191   1.414       .  A
C186       C2425   1.493       .  S
C187        C188   1.399       .  A
C187        H192   1.084       .  S
C188        C189   1.392       .  A
C188       C2401   1.474       .  S
C189        C190   1.398       .  A
C189        H193   1.085       .  S
C190        C191   1.414       .  A
C190       C2413   1.496       .  S
C191        H194   1.083       .  S
C195        C196   1.411       .  A
C195        C200   1.414       .  A
C195       C2377   1.504       .  S
C196        C197   1.419       .  A
C196       C2512   1.488       .  S
C197        C198   1.433       .  A
C197       C2428   1.512       .  S
C198        C199   1.437       .  A
C198       C2389   1.533       .  S
C199        C200   1.426       .  A
C199       C2464   1.496       .  S
C200       C2368   1.493       .  S
C201        C202   1.410       .  A
C201        C206   1.409       .  A
C201       C2380   1.486       .  S
C202        C203   1.412       .  A
C202        H207   1.082       .  S
C203        C204   1.402       .  A
C203       C2473   1.499       .  S
C204        C205   1.394       .  A
C204        H208   1.084       .  S
C205        C206   1.403       .  A
C205       C2353   1.478       .  S
C206        H209   1.084       .  S
O210       Zr222   2.423   1_655  S
O210        C212   1.283       .  A
O211       Zr248   2.423       .  S
O211        C212   1.287       .  A
C212       C2584   1.490       .  S
O213       Zr225   2.474       .  S
O213        C215   1.293       .  A
O214       Zr249   2.408       .  S
O214        C215   1.282       .  A
C215       C2356   1.482       .  S
O216       Zr225   2.458   1_655  S
O216        C218   1.290       .  A
O217       Zr248   2.419       .  S
O217        C218   1.284       .  A
C218       C2881   1.476       .  S
O219       Zr222   2.440       .  S
O219        C221   1.286       .  A
O220       Zr249   2.407       .  S
O220        C221   1.284       .  A
C221       C2329   1.466       .  S
Zr222       O223   2.433       .  S
Zr222       O224   2.434       .  S
Zr222       O228   2.370       .  S
Zr222       O229   2.355       .  S
Zr222       O252   2.374       .  S
Zr222       O254   2.372       .  S
O223        H266   0.990       .  S
O224        H265   0.990       .  S
O224        H269   0.990       .  S
Zr225       O226   2.438       .  S
Zr225       O227   2.434       .  S
Zr225       O229   2.369       .  S
Zr225       O228   2.374       .  S
Zr225       O253   2.383   1_455  S
Zr225       O255   2.378       .  S
O226        H267   0.990       .  S
O226        H270   0.990       .  S
O227        H260   0.990       .  S
O228       Zr248   2.374   1_455  S
O229       Zr249   2.377       .  S
O229        H256   0.964       .  S
O230       Zr242   2.459       .  S
O230        C232   1.290       .  A
O231       Zr249   2.417       .  S
O231        C232   1.286       .  A
C232       C2344   1.487       .  S
O233       Zr245   2.476   1_655  S
O233        C235   1.294       .  A
O234       Zr248   2.406       .  S
O234        C235   1.281       .  A
C235       C2305   1.478       .  S
O236       Zr245   2.489       .  S
O236        C238   1.296       .  A
O237       Zr249   2.389       .  S
O237        C238   1.278       .  A
C238       C2320   1.471       .  S
O239       Zr242   2.423   1_655  S
O239        C241   1.285       .  A
O240       Zr248   2.431       .  S
O240        C241   1.287       .  A
C241       C2620   1.488       .  S
Zr242       O243   2.431       .  S
Zr242       O244   2.434       .  S
Zr242       O250   2.359       .  S
Zr242       O251   2.374       .  S
Zr242       O254   2.375       .  S
Zr242       O252   2.371       .  S
O243        H263   0.990       .  S
O243        H268   0.990       .  S
O244        H264   0.990       .  S
Zr245       O246   2.434       .  S
Zr245       O247   2.433       .  S
Zr245       O251   2.374       .  S
Zr245       O250   2.369       .  S
Zr245       O255   2.382       .  S
Zr245       O253   2.384   1_455  S
O246        H262   0.990       .  S
O247        H261   0.990       .  S
O247        H271   0.990       .  S
Zr248       O251   2.378   1_655  S
Zr248       O253   2.396       .  S
Zr248       O254   2.386   1_655  S
Zr249       O250   2.383       .  S
Zr249       O252   2.378       .  S
Zr249       O255   2.387       .  S
O250        H258   0.964       .  S
O253        H257   0.967       .  S
O254        H259   0.966   1_455  S
C272        C273   1.397       .  A
C272        C277   1.396       .  A
C272       C2341   1.472       .  S
C273        C274   1.404       .  A
C273        H278   1.082       .  S
C274        C275   1.416       .  A
C274       C2293   1.505       .  S
C275        C276   1.411       .  A
C275        H279   1.083       .  S
C276        C277   1.401       .  A
C276       C2281   1.481       .  S
C277        H280   1.084       .  S
C281        C282   1.396       .  A
C281        C286   1.399       .  A
C281       C2332   1.476       .  S
C282        C283   1.402       .  A
C282        H287   1.084       .  S
C283        C284   1.412       .  A
C283       C2365   1.480       .  S
C284        C285   1.417       .  A
C284        H288   1.082       .  S
C285        C286   1.402       .  A
C285       C2269   1.507       .  S
C286        H289   1.081       .  S
C290        C291   1.408       .  A
C290        C295   1.398       .  A
C290       C2245   1.494       .  S
C291        C292   1.418       .  A
C291        H296   1.082       .  S
C292        C293   1.405       .  A
C292       C2392   1.499       .  S
C293        C294   1.397       .  A
C293        H297   1.080       .  S
C294        C295   1.395       .  A
C294       C2257   1.469       .  S
C295        H298   1.084       .  S
C299        C300   1.394       .  A
C299        C304   1.392       .  A
C299       C2221   1.470       .  S
C300        C301   1.401       .  A
C300        H305   1.084       .  S
C301        C302   1.411       .  A
C301       C2836   1.478       .  S
C302        C303   1.419       .  A
C302        H306   1.080       .  S
C303        C304   1.404       .  A
C303       C2233   1.510       .  S
C304        H307   1.079       .  S
C308        C309   1.406       .  A
C308        C313   1.406       .  A
C308       C2197   1.481       .  S
C309        C310   1.404       .  A
C309        H314   1.084       .  S
C310        C311   1.398       .  A
C310       C2485   1.476       .  S
C311        C312   1.395       .  A
C311        H315   1.085       .  S
C312        C313   1.403       .  A
C312       C2212   1.474       .  S
C313        H316   1.084       .  S
C317        C318   1.440       .  A
C317        C322   1.440       .  A
C317       C2728   1.533       .  S
C318        C319   1.427       .  A
C318       C2548   1.508       .  S
C319        C320   1.414       .  A
C319       C2200   1.493       .  S
C320        C321   1.409       .  A
C320       C2161   1.495       .  S
C321        C322   1.426       .  A
C321       C2173   1.507       .  S
C322       C2185   1.544       .  S
C323        C324   1.402       .  A
C323        C328   1.415       .  A
C323       C2176   1.487       .  S
C324        C325   1.394       .  A
C324        H329   1.084       .  S
C325        C326   1.401       .  A
C325       C2152   1.476       .  S
C326        C327   1.408       .  A
C326        H330   1.081       .  S
C327        C328   1.418       .  A
C327       C2137   1.513       .  S
C328        H331   1.083       .  S
O332       Zr344   2.420       .  S
O332        C334   1.286       .  A
O333       Zr370   2.416   1_556  S
O333        C334   1.283   1_556  A
C334       C2788   1.482   1_554  S
O335       Zr347   2.429       .  S
O335        C337   1.285       .  A
O336       Zr371   2.450       .  S
O336        C337   1.293       .  A
C337       C2116   1.496       .  S
O338       Zr347   2.459       .  S
O338        C340   1.289       .  A
O339       Zr370   2.403   1_556  S
O339        C340   1.282   1_556  A
C340       C2296   1.475   1_554  S
O341       Zr344   2.442       .  S
O341        C343   1.287       .  A
O342       Zr371   2.423       .  S
O342        C343   1.285       .  A
C343       C2128   1.470       .  S
Zr344       O345   2.434       .  S
Zr344       O346   2.434       .  S
Zr344       O350   2.371       .  S
Zr344       O351   2.359       .  S
Zr344       O374   2.358       .  S
Zr344       O376   2.361       .  S
O345        H388   0.990       .  S
O346        H387   0.990       .  S
O346        H391   0.990       .  S
Zr347       O348   2.437       .  S
Zr347       O349   2.434       .  S
Zr347       O351   2.376       .  S
Zr347       O350   2.359       .  S
Zr347       O375   2.371       .  S
Zr347       O377   2.389       .  S
O348        H389   0.990       .  S
O348        H392   0.989       .  S
O349        H382   0.990       .  S
O350       Zr370   2.364       .  S
O351       Zr371   2.382       .  S
O351        H378   0.965       .  S
O352       Zr364   2.431       .  S
O352        C354   1.288       .  A
O353       Zr371   2.445       .  S
O353        C354   1.291       .  A
C354       C2149   1.490       .  S
O355       Zr367   2.460       .  S
O355        C357   1.290   1_554  A
O356       Zr370   2.402   1_556  S
O356        C357   1.282       .  A
C357       C2272   1.468       .  S
O358       Zr367   2.463       .  S
O358        C360   1.292       .  A
O359       Zr371   2.417       .  S
O359        C360   1.286       .  A
C360       C2101   1.487       .  S
O361       Zr364   2.440       .  S
O361        C363   1.290       .  A
O362       Zr370   2.395   1_556  S
O362        C363   1.279   1_556  A
C363       C2449   1.485   1_554  S
Zr364       O365   2.432       .  S
Zr364       O366   2.433       .  S
Zr364       O372   2.363       .  S
Zr364       O373   2.352       .  S
Zr364       O376   2.367       .  S
Zr364       O374   2.380       .  S
O365        H385   0.989       .  S
O365        H390   0.989       .  S
O366        H386   0.990       .  S
Zr367       O368   2.434       .  S
Zr367       O369   2.434       .  S
Zr367       O373   2.370       .  S
Zr367       O372   2.371       .  S
Zr367       O377   2.382       .  S
Zr367       O375   2.383       .  S
O368        H384   0.990       .  S
O369        H383   0.990       .  S
O369        H393   0.990       .  S
Zr370       O373   2.371       .  S
Zr370       O375   2.385       .  S
Zr370       O376   2.387       .  S
Zr371       O372   2.388       .  S
Zr371       O374   2.389       .  S
Zr371       O377   2.394       .  S
O372        H380   0.965       .  S
O375        H379   0.967       .  S
O376        H381   0.966       .  S
O394       Zr406   2.437       .  S
O394        C396   1.287       .  A
O395       Zr432   2.462   1_655  S
O395        C396   1.294       .  A
C396       C2752   1.491       .  S
O397       Zr409   2.434       .  S
O397        C399   1.286       .  A
O398       Zr433   2.433       .  S
O398        C399   1.287   1_455  A
C399       C2032   1.467       .  S
O400       Zr409   2.419       .  S
O400        C402   1.283       .  A
O401       Zr432   2.441       .  S
O401        C402   1.288   1_455  A
C402       C2044   1.496       .  S
O403       Zr406   2.463       .  S
O403        C405   1.292       .  A
O404       Zr433   2.405       .  S
O404        C405   1.285   1_455  A
C405       C2089   1.483       .  S
Zr406       O407   2.433       .  S
Zr406       O408   2.434       .  S
Zr406       O412   2.383       .  S
Zr406       O413   2.359       .  S
Zr406       O436   2.376   1_655  S
Zr406       O438   2.379   1_655  S
O407        H450   0.990       .  S
O408        H449   0.990       .  S
O408        H453   0.990       .  S
Zr409       O410   2.436       .  S
Zr409       O411   2.434   1_655  S
Zr409       O413   2.356       .  S
Zr409       O412   2.374       .  S
Zr409       O437   2.362   1_655  S
Zr409       O439   2.370   1_655  S
O410        H451   0.990       .  S
O410        H454   0.990       .  S
O411        H444   0.990       .  S
O412       Zr432   2.385   1_655  S
O413       Zr433   2.380   1_655  S
O413        H440   0.964       .  S
O414       Zr426   2.470       .  S
O414        C416   1.292       .  A
O415       Zr433   2.406       .  S
O415        C416   1.283       .  A
C416       C2209   1.492       .  S
O417       Zr429   2.392       .  S
O417        C419   1.279       .  A
O418       Zr432   2.449       .  S
O418        C419   1.288       .  A
C419       C2068   1.494       .  S
O420       Zr429   2.434       .  S
O420        C422   1.286       .  A
O421       Zr433   2.441       .  S
O421        C422   1.288       .  A
C422       C2080   1.481       .  S
O423       Zr426   2.437       .  S
O423        C425   1.287       .  A
O424       Zr432   2.424       .  S
O424        C425   1.287       .  A
C425       C2053   1.481       .  S
Zr426       O427   2.439       .  S
Zr426       O428   2.433       .  S
Zr426       O434   2.366       .  S
Zr426       O435   2.374       .  S
Zr426       O438   2.385       .  S
Zr426       O436   2.371       .  S
O427        H447   0.990       .  S
O427        H452   0.990       .  S
O428        H448   0.990       .  S
Zr429       O430   2.434       .  S
Zr429       O431   2.433       .  S
Zr429       O435   2.370       .  S
Zr429       O434   2.347       .  S
Zr429       O439   2.359       .  S
Zr429       O437   2.358       .  S
O430        H446   0.990       .  S
O431        H445   0.990       .  S
O431        H455   0.990       .  S
Zr432       O435   2.392       .  S
Zr432       O437   2.396       .  S
Zr432       O438   2.409       .  S
Zr433       O434   2.381       .  S
Zr433       O436   2.397       .  S
Zr433       O439   2.379       .  S
O434        H442   0.964       .  S
O437        H441   0.966       .  S
O438        H443   0.968       .  S
C456        C457   1.395       .  A
C456        C461   1.402       .  A
C456       C2113   1.484       .  S
C457        C458   1.403       .  A
C457        H462   1.084       .  S
C458        C459   1.405       .  A
C458       C2065   1.490       .  S
C459        C460   1.406       .  A
C459        H463   1.083       .  S
C460        C461   1.405       .  A
C460       C2017   1.474       .  S
C461        H464   1.082       .  S
C465        C466   1.390       .  A
C465        C470   1.398       .  A
C465       C2005   1.476       .  S
C466        C467   1.404       .  A
C466        H471   1.084       .  S
C467        C468   1.412       .  A
C467       C2041   1.505       .  S
C468        C469   1.419       .  A
C468        H472   1.077       .  S
C469        C470   1.411       .  A
C469       C1996   1.502       .  S
C470        H473   1.083       .  S
C474        C475   1.399       .  A
C474        C479   1.401       .  A
C474       C2029   1.474       .  S
C475        C476   1.401       .  A
C475        H480   1.084       .  S
C476        C477   1.407       .  A
C476       C1984   1.487       .  S
C477        C478   1.406       .  A
C477        H481   1.084       .  S
C478        C479   1.403       .  A
C478       C1969   1.478       .  S
C479        H482   1.084       .  S
O483       Zr495   2.428       .  S
O483        C485   1.285       .  A
O484       Zr521   2.434   1_556  S
O484        C485   1.287   1_556  A
C485       C2932   1.496   1_554  S
O486       Zr498   2.467       .  S
O486        C488   1.292       .  A
O487       Zr522   2.420       .  S
O487        C488   1.287       .  A
C488       C1981   1.487       .  S
O489       Zr498   2.457       .  S
O489        C491   1.291   1_554  A
O490       Zr521   2.387   1_556  S
O490        C491   1.279       .  A
C491       C2596   1.489       .  S
O492       Zr495   2.417       .  S
O492        C494   1.284       .  A
O493       Zr522   2.443       .  S
O493        C494   1.288       .  A
C494       C1936   1.472       .  S
Zr495       O496   2.433       .  S
Zr495       O497   2.434       .  S
Zr495       O501   2.361       .  S
Zr495       O502   2.366       .  S
Zr495       O525   2.369       .  S
Zr495       O527   2.363       .  S
O496        H539   0.990       .  S
O497        H538   0.990       .  S
O497        H542   0.990       .  S
Zr498       O499   2.435       .  S
Zr498       O500   2.434       .  S
Zr498       O502   2.371       .  S
Zr498       O501   2.374       .  S
Zr498       O526   2.379       .  S
Zr498       O528   2.382       .  S
O499        H540   0.989       .  S
O499        H543   0.990       .  S
O500        H533   0.990       .  S
O501       Zr521   2.372       .  S
O502       Zr522   2.389       .  S
O502        H529   0.964       .  S
O503       Zr515   2.433       .  S
O503        C505   1.285       .  A
O504       Zr522   2.421       .  S
O504        C505   1.285       .  A
C505       C1945   1.463       .  S
O506       Zr518   2.445       .  S
O506        C508   1.289   1_554  A
O507       Zr521   2.417   1_556  S
O507        C508   1.284       .  A
C508       C2632   1.491       .  S
O509       Zr518   2.439       .  S
O509        C511   1.288       .  A
O510       Zr522   2.439       .  S
O510        C511   1.289       .  A
C511       C2008   1.493       .  S
O512       Zr515   2.436       .  S
O512        C514   1.286       .  A
O513       Zr521   2.412   1_556  S
O513        C514   1.282   1_556  A
C514       C1957   1.463   1_554  S
Zr515       O516   2.438       .  S
Zr515       O517   2.434       .  S
Zr515       O523   2.367       .  S
Zr515       O524   2.365       .  S
Zr515       O527   2.367       .  S
Zr515       O525   2.372       .  S
O516        H536   0.990       .  S
O516        H541   0.990       .  S
O517        H537   0.990       .  S
Zr518       O519   2.434       .  S
Zr518       O520   2.434       .  S
Zr518       O524   2.366       .  S
Zr518       O523   2.370       .  S
Zr518       O528   2.377       .  S
Zr518       O526   2.369       .  S
O519        H535   0.990       .  S
O520        H534   0.990       .  S
O520        H544   0.990       .  S
Zr521       O524   2.371       .  S
Zr521       O526   2.393       .  S
Zr521       O527   2.381       .  S
Zr522       O523   2.388       .  S
Zr522       O525   2.390       .  S
Zr522       O528   2.396       .  S
O523        H531   0.963       .  S
O526        H530   0.967       .  S
O527        H532   0.964       .  S
C545        C546   1.401       .  A
C545        C550   1.397       .  A
C545       C1909   1.484       .  S
C546        C547   1.404       .  A
C546        H551   1.084       .  S
C547        C548   1.406       .  A
C547       C1921   1.472       .  S
C548        C549   1.406       .  A
C548        H552   1.083       .  S
C549        C550   1.399       .  A
C549       C1897   1.490       .  S
C550        H553   1.083       .  S
C554        C555   1.401       .  A
C554        C559   1.408       .  A
C554       C2092   1.488       .  S
C555        C556   1.400       .  A
C555        H560   1.085       .  S
C556        C557   1.401       .  A
C556       C2500   1.482       .  S
C557        C558   1.403       .  A
C557        H561   1.084       .  S
C558        C559   1.406       .  A
C558       C1885   1.478       .  S
C559        H562   1.083       .  S
C563        C564   1.415       .  A
C563        C568   1.423       .  A
C563       C1924   1.487       .  S
C564        C565   1.409       .  A
C564       C2668   1.495       .  S
C565        C566   1.410       .  A
C565       C1888   1.488       .  S
C566        C567   1.418       .  A
C566       C1972   1.490       .  S
C567        C568   1.421       .  A
C567       C1876   1.498       .  S
C568       C1861   1.506       .  S
C569        C570   1.404       .  A
C569        C574   1.408       .  A
C569       C1873   1.485       .  S
C570        C571   1.401       .  A
C570        H575   1.084       .  S
C571        C572   1.402       .  A
C571       C1933   1.477       .  S
C572        C573   1.403       .  A
C572        H576   1.084       .  S
C573        C574   1.405       .  A
C573       C1852   1.482       .  S
C574        H577   1.084       .  S
O578       Zr590   2.458       .  S
O578        C580   1.291   1_554  A
O579       Zr616   2.391   1_556  S
O579        C580   1.279       .  A
C580       C2224   1.488       .  S
O581       Zr593   2.443       .  S
O581        C583   1.287       .  A
O582       Zr617   2.441       .  S
O582        C583   1.288       .  A
C583       C1849   1.482       .  S
O584       Zr593   2.460       .  S
O584        C586   1.290       .  A
O585       Zr616   2.420   1_556  S
O585        C586   1.283   1_556  A
C586       C2917   1.481   1_554  S
O587       Zr590   2.436       .  S
O587        C589   1.287       .  A
O588       Zr617   2.444       .  S
O588        C589   1.290       .  A
C589       C1828   1.487       .  S
Zr590       O591   2.434       .  S
Zr590       O592   2.435       .  S
Zr590       O596   2.360       .  S
Zr590       O597   2.371       .  S
Zr590       O620   2.382       .  S
Zr590       O622   2.365       .  S
O591        H634   0.990       .  S
O592        H633   0.990       .  S
O592        H637   0.989       .  S
Zr593       O594   2.439       .  S
Zr593       O595   2.434       .  S
Zr593       O597   2.377       .  S
Zr593       O596   2.364       .  S
Zr593       O621   2.371       .  S
Zr593       O623   2.379       .  S
O594        H635   0.990       .  S
O594        H638   0.990       .  S
O595        H628   0.990       .  S
O596       Zr616   2.366       .  S
O597       Zr617   2.396       .  S
O597        H624   0.964       .  S
O598       Zr610   2.445       .  S
O598        C600   1.289       .  A
O599       Zr617   2.441       .  S
O599        C600   1.289       .  A
C600       C1837   1.496       .  S
O601       Zr613   2.484       .  S
O601        C603   1.296       .  A
O602       Zr616   2.379   1_556  S
O602        C603   1.277   1_556  A
C603       C2440   1.475   1_554  S
O604       Zr613   2.449       .  S
O604        C606   1.292       .  A
O605       Zr617   2.445       .  S
O605        C606   1.289       .  A
C606       C2140   1.506       .  S
O607       Zr610   2.444       .  S
O607        C609   1.287       .  A
O608       Zr616   2.418   1_556  S
O608        C609   1.286   1_556  A
C609       C2248   1.475   1_554  S
Zr610       O611   2.437       .  S
Zr610       O612   2.434       .  S
Zr610       O618   2.365       .  S
Zr610       O619   2.370       .  S
Zr610       O622   2.376       .  S
Zr610       O620   2.380       .  S
O611        H631   0.990       .  S
O611        H636   0.990       .  S
O612        H632   0.990       .  S
Zr613       O614   2.434       .  S
Zr613       O615   2.434       .  S
Zr613       O619   2.361       .  S
Zr613       O618   2.379       .  S
Zr613       O623   2.389       .  S
Zr613       O621   2.370       .  S
O614        H630   0.990       .  S
O615        H629   0.990       .  S
O615        H639   0.990       .  S
Zr616       O619   2.372       .  S
Zr616       O621   2.384       .  S
Zr616       O622   2.382       .  S
Zr617       O618   2.396       .  S
Zr617       O620   2.396       .  S
Zr617       O623   2.402       .  S
O618        H626   0.965       .  S
O621        H625   0.965       .  S
O622        H627   0.965       .  S
C640        C641   1.406       .  A
C640        C645   1.393       .  A
C640       C1840   1.485       .  S
C641        C642   1.420       .  A
C641        H646   1.081       .  S
C642        C643   1.414       .  A
C642       C2188   1.510       .  S
C643        C644   1.399       .  A
C643        H647   1.080       .  S
C644        C645   1.397       .  A
C644       C1813   1.473       .  S
C645        H648   1.085       .  S
C649        C650   1.410       .  A
C649        C654   1.404       .  A
C649       C1825   1.498       .  S
C650        C651   1.410       .  A
C650        H655   1.083       .  S
C651        C652   1.406       .  A
C651       C1864   1.485       .  S
C652        C653   1.399       .  A
C652        H656   1.084       .  S
C653        C654   1.398       .  A
C653       C1801   1.475       .  S
C654        H657   1.084       .  S
C658        C659   1.407       .  A
C658        C663   1.420       .  A
C658       C1789   1.512       .  S
C659        C660   1.398       .  A
C659        H664   1.081       .  S
C660        C661   1.394       .  A
C660       C1948   1.470       .  S
C661        C662   1.397       .  A
C661        H665   1.085       .  S
C662        C663   1.412       .  A
C662       C1777   1.482       .  S
C663        H666   1.081       .  S
C667        C668   1.428       .  A
C667        C672   1.439       .  A
C667       C2764   1.549       .  S
C668        C669   1.443       .  A
C668       C1993   1.540       .  S
C669        C670   1.414       .  A
C669       C1780   1.504       .  S
C670        C671   1.418       .  A
C670       C1744   1.512       .  S
C671        C672   1.427       .  A
C671       C1753   1.485       .  S
C672       C1765   1.540       .  S
C673        C674   1.401       .  A
C673        C678   1.395       .  A
C673       C1729   1.470       .  S
C674        C675   1.405       .  A
C674        H679   1.084       .  S
C675        C676   1.404       .  A
C675       C1756   1.473       .  S
C676        C677   1.396       .  A
C676        H680   1.084       .  S
C677        C678   1.392       .  A
C677       C1717   1.464       .  S
C678        H681   1.085       .  S
O682       Zr694   2.432   1_565  S
O682        C684   1.286       .  A
O683       Zr720   2.419       .  S
O683        C684   1.284   1_545  A
C684       C1816   1.473       .  S
O685       Zr697   2.436   1_565  S
O685        C687   1.284       .  A
O686       Zr721   2.409       .  S
O686        C687   1.284   1_545  A
C687       C1912   1.472       .  S
O688       Zr697   2.401   1_565  S
O688        C690   1.281       .  A
O689       Zr720   2.445       .  S
O689        C690   1.289   1_545  A
C690       C2716   1.491       .  S
O691       Zr694   2.436   1_565  S
O691        C693   1.286       .  A
O692       Zr721   2.432       .  S
O692        C693   1.286   1_545  A
C693       C1804   1.470       .  S
Zr694       O695   2.435   1_545  S
Zr694       O696   2.433       .  S
Zr694       O700   2.365       .  S
Zr694       O701   2.372       .  S
Zr694       O724   2.373       .  S
Zr694       O726   2.369       .  S
O695        H738   0.991       .  S
O696        H737   0.990       .  S
O696        H741   0.990       .  S
Zr697       O698   2.439   1_545  S
Zr697       O699   2.434       .  S
Zr697       O701   2.358       .  S
Zr697       O700   2.370       .  S
Zr697       O725   2.369       .  S
Zr697       O727   2.357       .  S
O698        H739   0.990       .  S
O698        H742   0.990       .  S
O699        H732   0.990       .  S
O700       Zr720   2.369       .  S
O701       Zr721   2.375       .  S
O701        H728   0.964   1_545  S
O702       Zr714   2.488       .  S
O702        C704   1.297       .  A
O703       Zr721   2.407       .  S
O703        C704   1.283       .  A
C704       C1681   1.494       .  S
O705       Zr717   2.438       .  S
O705        C707   1.287       .  A
O706       Zr720   2.419       .  S
O706        C707   1.286       .  A
C707       C1705   1.481       .  S
O708       Zr717   2.431       .  S
O708        C710   1.285       .  A
O709       Zr721   2.402       .  S
O709        C710   1.285       .  A
C710       C1732   1.472       .  S
O711       Zr714   2.449       .  S
O711        C713   1.290       .  A
O712       Zr720   2.417       .  S
O712        C713   1.285       .  A
C713       C1696   1.483       .  S
Zr714       O715   2.438       .  S
Zr714       O716   2.433       .  S
Zr714       O722   2.364       .  S
Zr714       O723   2.380       .  S
Zr714       O726   2.385       .  S
Zr714       O724   2.372       .  S
O715        H735   0.990       .  S
O715        H740   0.990       .  S
O716        H736   0.990       .  S
Zr717       O718   2.432       .  S
Zr717       O719   2.434       .  S
Zr717       O723   2.365       .  S
Zr717       O722   2.363       .  S
Zr717       O727   2.378       .  S
Zr717       O725   2.369       .  S
O718        H734   0.990       .  S
O719        H733   0.990       .  S
O719        H743   0.990       .  S
Zr720       O723   2.384       .  S
Zr720       O725   2.391       .  S
Zr720       O726   2.403       .  S
Zr721       O722   2.387       .  S
Zr721       O724   2.387       .  S
Zr721       O727   2.388       .  S
O722        H730   0.963       .  S
O725        H729   0.967       .  S
O726        H731   0.965       .  S
O744       Zr756   2.421       .  S
O744        C746   1.283       .  A
O745       Zr782   2.424       .  S
O745        C746   1.287       .  A
C746       C2773   1.485       .  S
O747       Zr759   2.398       .  S
O747        C749   1.279       .  A
O748       Zr783   2.458       .  S
O748        C749   1.292       .  A
C749       C1612   1.492       .  S
O750       Zr759   2.427       .  S
O750        C752   1.284       .  A
O751       Zr782   2.436       .  S
O751        C752   1.287       .  A
C752       C1621   1.472       .  S
O753       Zr756   2.447       .  S
O753        C755   1.288       .  A
O754       Zr783   2.433       .  S
O754        C755   1.290       .  A
C755       C1669   1.500       .  S
Zr756       O757   2.428   1_554  S
Zr756       O758   2.433       .  S
Zr756       O762   2.363       .  S
Zr756       O763   2.355       .  S
Zr756       O786   2.372       .  S
Zr756       O788   2.376       .  S
O757        H800   0.990       .  S
O758        H799   0.990       .  S
O758        H803   0.990       .  S
Zr759       O760   2.440   1_554  S
Zr759       O761   2.434       .  S
Zr759       O763   2.364       .  S
Zr759       O762   2.341       .  S
Zr759       O787   2.358       .  S
Zr759       O789   2.372       .  S
O760        H801   0.989       .  S
O760        H804   0.989       .  S
O761        H794   0.990       .  S
O762       Zr782   2.349       .  S
O763       Zr783   2.377       .  S
O763        H790   0.964       .  S
O764       Zr776   2.443       .  S
O764        C766   1.287       .  A
O765       Zr783   2.457       .  S
O765        C766   1.293       .  A
C766       C1792   1.486       .  S
O767       Zr779   2.439       .  S
O767        C769   1.289       .  A
O768       Zr782   2.415       .  S
O768        C769   1.284       .  A
C769       C1648   1.477       .  S
O770       Zr779   2.451       .  S
O770        C772   1.290       .  A
O771       Zr783   2.418       .  S
O771        C772   1.285       .  A
C772       C1660   1.498       .  S
O773       Zr776   2.458       .  S
O773        C775   1.291       .  A
O774       Zr782   2.400       .  S
O774        C775   1.283       .  A
C775       C1633   1.476       .  S
Zr776       O777   2.437       .  S
Zr776       O778   2.434       .  S
Zr776       O784   2.379       .  S
Zr776       O785   2.363       .  S
Zr776       O788   2.376       .  S
Zr776       O786   2.387       .  S
O777        H797   0.990       .  S
O777        H802   0.990       .  S
O778        H798   0.990       .  S
Zr779       O780   2.434       .  S
Zr779       O781   2.434       .  S
Zr779       O785   2.367       .  S
Zr779       O784   2.365       .  S
Zr779       O789   2.363       .  S
Zr779       O787   2.371       .  S
O780        H796   0.990       .  S
O781        H795   0.990       .  S
O781        H805   0.990       .  S
Zr782       O785   2.379       .  S
Zr782       O787   2.385       .  S
Zr782       O788   2.397       .  S
Zr783       O784   2.394       .  S
Zr783       O786   2.395       .  S
Zr783       O789   2.395       .  S
O784        H792   0.965       .  S
O787        H791   0.966       .  S
O788        H793   0.966       .  S
C806        C807   1.407       .  A
C806        C811   1.403       .  A
C806       C1600   1.475       .  S
C807        C808   1.403       .  A
C807        H812   1.084       .  S
C808        C809   1.399       .  A
C808       C1693   1.474       .  S
C809        C810   1.397       .  A
C809        H813   1.085       .  S
C810        C811   1.398       .  A
C810       C1645   1.470       .  S
C811        H814   1.084       .  S
C815        C816   1.404       .  A
C815        C820   1.413       .  A
C815       C1585   1.499       .  S
C816        C817   1.401       .  A
C816        H821   1.084       .  S
C817        C818   1.407       .  A
C817       C1624   1.488       .  S
C818        C819   1.409       .  A
C818        H822   1.084       .  S
C819        C820   1.414       .  A
C819       C1573   1.497       .  S
C820        H823   1.083       .  S
C824        C825   1.404       .  A
C824        C829   1.400       .  A
C824       C1609   1.483       .  S
C825        C826   1.394       .  A
C825        H830   1.080       .  S
C826        C827   1.414       .  A
C826       C1564   1.504       .  S
C827        C828   1.410       .  A
C827        H831   1.083       .  S
C828        C829   1.406       .  A
C828       C1552   1.482       .  S
C829        H832   1.084       .  S
O833       Zr845   2.460   1_565  S
O833        C835   1.292       .  A
O834       Zr871   2.415       .  S
O834        C835   1.284       .  A
C835       C2860   1.483       .  S
O836       Zr848   2.424       .  S
O836        C838   1.282       .  A
O837       Zr872   2.468       .  S
O837        C838   1.295       .  A
C838       C1561   1.491       .  S
O839       Zr848   2.423   1_565  S
O839        C841   1.282       .  A
O840       Zr871   2.425       .  S
O840        C841   1.286       .  A
C841       C2236   1.464       .  S
O842       Zr845   2.425       .  S
O842        C844   1.287       .  A
O843       Zr872   2.427       .  S
O843        C844   1.286       .  A
C844       C1528   1.484       .  S
Zr845       O846   2.434       .  S
Zr845       O847   2.434       .  S
Zr845       O851   2.364       .  S
Zr845       O852   2.381       .  S
Zr845       O875   2.370       .  S
Zr845       O877   2.358       .  S
O846        H889   0.990       .  S
O847        H888   0.990       .  S
O847        H892   0.990       .  S
Zr848       O849   2.438       .  S
Zr848       O850   2.435       .  S
Zr848       O852   2.378       .  S
Zr848       O851   2.374       .  S
Zr848       O876   2.374       .  S
Zr848       O878   2.377       .  S
O849        H890   0.990       .  S
O849        H893   0.990       .  S
O850        H883   0.990       .  S
O851       Zr871   2.358   1_545  S
O852       Zr872   2.380       .  S
O852        H879   0.965       .  S
O853       Zr865   2.461       .  S
O853        C855   1.292       .  A
O854       Zr872   2.410       .  S
O854        C855   1.283       .  A
C855       C1537   1.467       .  S
O856       Zr868   2.465   1_565  S
O856        C858   1.292       .  A
O857       Zr871   2.383       .  S
O857        C858   1.281       .  A
C858       C2260   1.498       .  S
O859       Zr868   2.471       .  S
O859        C861   1.293       .  A
O860       Zr872   2.433       .  S
O860        C861   1.289       .  A
C861       C1588   1.491       .  S
O862       Zr865   2.476   1_565  S
O862        C864   1.294       .  A
O863       Zr871   2.399       .  S
O863        C864   1.281       .  A
C864       C2416   1.473       .  S
Zr865       O866   2.436       .  S
Zr865       O867   2.434       .  S
Zr865       O873   2.373       .  S
Zr865       O874   2.362       .  S
Zr865       O877   2.369       .  S
Zr865       O875   2.376       .  S
O866        H886   0.990       .  S
O866        H891   0.990       .  S
O867        H887   0.990       .  S
Zr868       O869   2.434       .  S
Zr868       O870   2.433       .  S
Zr868       O874   2.370       .  S
Zr868       O873   2.367       .  S
Zr868       O878   2.383       .  S
Zr868       O876   2.383       .  S
O869        H885   0.990       .  S
O870        H884   0.990       .  S
O870        H894   0.990       .  S
Zr871       O874   2.383   1_565  S
Zr871       O876   2.386   1_565  S
Zr871       O877   2.380   1_565  S
Zr872       O873   2.398       .  S
Zr872       O875   2.395       .  S
Zr872       O878   2.385       .  S
O873        H881   0.965       .  S
O876        H880   0.966       .  S
O877        H882   0.966       .  S
C895        C896   1.394       .  A
C895        C900   1.403       .  A
C895       C1672   1.475       .  S
C896        C897   1.399       .  A
C896        H901   1.085       .  S
C897        C898   1.405       .  A
C897       C1960   1.482       .  S
C898        C899   1.407       .  A
C898        H902   1.084       .  S
C899        C900   1.410       .  A
C899       C1513   1.486       .  S
C900        H903   1.084       .  S
C904        C905   1.424       .  A
C904        C909   1.429       .  A
C904       C1501   1.533       .  S
C905        C906   1.402       .  A
C905        H910   1.076       .  S
C906        C907   1.389       .  A
C906       C1492   1.482       .  S
C907        C908   1.389       .  A
C907        H911   1.086       .  S
C908        C909   1.411       .  A
C908       C2308   1.484       .  S
C909        H912   1.077       .  S
C913        C914   1.441       .  A
C913        C918   1.430       .  A
C913       C1504   1.551       .  S
C914        C915   1.437       .  A
C914       C2608   1.538       .  S
C915        C916   1.416       .  A
C915       C1516   1.502       .  S
C916        C917   1.407       .  A
C916       C1549   1.491       .  S
C917        C918   1.413       .  A
C917       C1477   1.496       .  S
C918       C1465   1.495       .  S
C919        C920   1.400       .  A
C919        C924   1.398       .  A
C919       C1525   1.475       .  S
C920        C921   1.406       .  A
C920        H925   1.084       .  S
C921        C922   1.412       .  A
C921       C1480   1.489       .  S
C922        C923   1.416       .  A
C922        H926   1.083       .  S
C923        C924   1.401       .  A
C923       C1453   1.504       .  S
C924        H927   1.081       .  S
O928       Zr940   2.457   1_565  S
O928        C930   1.291       .  A
O929       Zr966   2.406       .  S
O929        C930   1.282   1_545  A
C930       C2848   1.497       .  S
O931       Zr943   2.450   1_565  S
O931        C933   1.289       .  A
O932       Zr967   2.406       .  S
O932        C933   1.281   1_545  A
C933       C2680   1.474       .  S
O934       Zr943   2.420   1_565  S
O934        C936   1.283       .  A
O935       Zr966   2.431       .  S
O935        C936   1.286   1_545  A
C936       C2644   1.466       .  S
O937       Zr940   2.449   1_565  S
O937        C939   1.288   1_565  A
O938       Zr967   2.404       .  S
O938        C939   1.283       .  A
C939       C1900   1.463   1_545  S
Zr940       O941   2.434   1_545  S
Zr940       O942   2.434       .  S
Zr940       O946   2.361       .  S
Zr940       O947   2.374       .  S
Zr940       O970   2.380       .  S
Zr940       O972   2.374       .  S
O941        H984   0.990       .  S
O942        H983   0.990       .  S
O942        H987   0.990       .  S
Zr943       O944   2.438   1_545  S
Zr943       O945   2.434       .  S
Zr943       O947   2.363       .  S
Zr943       O946   2.373       .  S
Zr943       O971   2.369       .  S
Zr943       O973   2.365       .  S
O944        H985   0.990       .  S
O944        H988   0.990       .  S
O945        H978   0.990       .  S
O946       Zr966   2.374       .  S
O947       Zr967   2.384       .  S
O947        H974   0.964   1_545  S
O948       Zr960   2.453       .  S
O948        C950   1.289       .  A
O949       Zr967   2.386       .  S
O949        C950   1.278       .  A
C950       C1720   1.483       .  S
O951       Zr963   2.459       .  S
O951        C953   1.292       .  A
O952       Zr966   2.400       .  S
O952        C953   1.281       .  A
C953       C1432   1.475       .  S
O954       Zr963   2.453       .  S
O954        C956   1.293       .  A
O955       Zr967   2.427       .  S
O955        C956   1.285       .  A
C956       C1444   1.503       .  S
O957       Zr960   2.420       .  S
O957        C959   1.282       .  A
O958       Zr966   2.434       .  S
O958        C959   1.288       .  A
C959       C1456   1.467       .  S
Zr960       O961   2.438       .  S
Zr960       O962   2.434       .  S
Zr960       O968   2.359       .  S
Zr960       O969   2.377       .  S
Zr960       O972   2.383       .  S
Zr960       O970   2.370       .  S
O961        H981   0.990       .  S
O961        H986   0.990       .  S
O962        H982   0.990       .  S
Zr963       O964   2.434       .  S
Zr963       O965   2.433       .  S
Zr963       O969   2.368       .  S
Zr963       O968   2.373       .  S
Zr963       O973   2.377       .  S
Zr963       O971   2.371       .  S
O964        H980   0.990       .  S
O965        H979   0.990       .  S
O965        H989   0.990       .  S
Zr966       O969   2.374       .  S
Zr966       O971   2.391       .  S
Zr966       O972   2.388       .  S
Zr967       O968   2.378       .  S
Zr967       O970   2.386       .  S
Zr967       O973   2.382       .  S
O968        H976   0.965       .  S
O971        H975   0.966       .  S
O972        H977   0.968       .  S
C990        C991   1.436       .  A
C990        C995   1.410       .  A
C990       C1768   1.524       .  S
C991        C992   1.422       .  A
C991        H996   1.077       .  S
C992        C993   1.393       .  A
C992       C1441   1.508       .  S
C993        C994   1.386       .  A
C993        H997   1.084       .  S
C994        C995   1.391       .  A
C994       C1417   1.465       .  S
C995        H998   1.077       .  S
C999       C1000   1.402       .  A
C999       C1004   1.406       .  A
C999       C1468   1.476       .  S
C1000      C1001   1.397       .  A
C1000      H1005   1.084       .  S
C1001      C1002   1.395       .  A
C1001      C1405   1.475       .  S
C1002      C1003   1.404       .  A
C1002      H1006   1.081       .  S
C1003      C1004   1.410       .  A
C1003      C1429   1.496       .  S
C1004      H1007   1.082       .  S
C1008      C1009   1.408       .  A
C1008      C1013   1.407       .  A
C1008      C1381   1.485       .  S
C1009      C1010   1.406       .  A
C1009      H1014   1.084       .  S
C1010      C1011   1.396       .  A
C1010      C1540   1.481       .  S
C1011      C1012   1.395       .  A
C1011      H1015   1.085       .  S
C1012      C1013   1.403       .  A
C1012      C1393   1.472       .  S
C1013      H1016   1.084       .  S
C1017      C1018   1.417       .  A
C1017      C1022   1.419       .  A
C1017      C2800   1.480       .  S
C1018      C1019   1.410       .  A
C1018      C2284   1.495       .  S
C1019      C1020   1.414       .  A
C1019      C1369   1.498       .  S
C1020      C1021   1.418       .  A
C1020      C1357   1.481       .  S
C1021      C1022   1.416       .  A
C1021      C1384   1.498       .  S
C1022      C1576   1.508       .  S
O1023     Zr1035   2.447   1_565  S
O1023      C1025   1.288       .  A
O1024     Zr1061   2.408       .  S
O1024      C1025   1.283       .  A
C1025      C2569   1.476       .  S
O1026     Zr1038   2.465       .  S
O1026      C1028   1.290       .  A
O1027     Zr1062   2.405       .  S
O1027      C1028   1.281       .  A
C1028      C1345   1.472       .  S
O1029     Zr1038   2.431       .  S
O1029      C1031   1.288   1_545  A
O1030     Zr1061   2.427       .  S
O1030      C1031   1.285       .  A
C1031      C2704   1.495       .  S
O1032     Zr1035   2.451       .  S
O1032      C1034   1.289       .  A
O1033     Zr1062   2.406       .  S
O1033      C1034   1.284       .  A
C1034      C1321   1.487       .  S
Zr1035     O1036   2.427       .  S
Zr1035     O1037   2.434       .  S
Zr1035     O1041   2.366       .  S
Zr1035     O1042   2.372       .  S
Zr1035     O1065   2.371       .  S
Zr1035     O1067   2.369       .  S
O1036      H1079   0.990       .  S
O1037      H1078   0.990       .  S
O1037      H1082   0.990       .  S
Zr1038     O1039   2.438       .  S
Zr1038     O1040   2.434       .  S
Zr1038     O1042   2.366       .  S
Zr1038     O1041   2.374       .  S
Zr1038     O1066   2.377       .  S
Zr1038     O1068   2.366       .  S
O1039      H1080   0.990       .  S
O1039      H1083   0.990       .  S
O1040      H1073   0.990       .  S
O1041     Zr1061   2.368   1_545  S
O1042     Zr1062   2.377       .  S
O1042      H1069   0.964       .  S
O1043     Zr1055   2.460       .  S
O1043      C1045   1.290       .  A
O1044     Zr1062   2.395       .  S
O1044      C1045   1.281       .  A
C1045      C1336   1.469       .  S
O1046     Zr1058   2.455   1_565  S
O1046      C1048   1.292       .  A
O1047     Zr1061   2.402       .  S
O1047      C1048   1.282       .  A
C1048      C2404   1.485       .  S
O1049     Zr1058   2.459       .  S
O1049      C1051   1.291       .  A
O1050     Zr1062   2.410       .  S
O1050      C1051   1.282       .  A
C1051      C1396   1.469       .  S
O1052     Zr1055   2.441   1_565  S
O1052      C1054   1.287       .  A
O1053     Zr1061   2.411       .  S
O1053      C1054   1.284       .  A
C1054      C2536   1.471       .  S
Zr1055     O1056   2.436       .  S
Zr1055     O1057   2.434       .  S
Zr1055     O1063   2.361       .  S
Zr1055     O1064   2.370       .  S
Zr1055     O1067   2.381       .  S
Zr1055     O1065   2.377       .  S
O1056      H1076   0.990       .  S
O1056      H1081   0.990       .  S
O1057      H1077   0.990       .  S
Zr1058     O1059   2.434       .  S
Zr1058     O1060   2.433       .  S
Zr1058     O1064   2.368       .  S
Zr1058     O1063   2.376       .  S
Zr1058     O1068   2.378       .  S
Zr1058     O1066   2.380       .  S
O1059      H1075   0.990       .  S
O1060      H1074   0.990       .  S
O1060      H1084   0.990       .  S
Zr1061     O1064   2.378   1_565  S
Zr1061     O1066   2.395   1_565  S
Zr1061     O1067   2.386   1_565  S
Zr1062     O1063   2.382       .  S
Zr1062     O1065   2.381       .  S
Zr1062     O1068   2.382       .  S
O1063      H1071   0.965       .  S
O1066      H1070   0.964       .  S
O1067      H1072   0.966       .  S
O1085     Zr1097   2.447   1_655  S
O1085      C1087   1.289       .  A
O1086     Zr1123   2.416       .  S
O1086      C1087   1.284       .  A
C1087      C2740   1.475       .  S
O1088     Zr1100   2.459       .  S
O1088      C1090   1.288       .  A
O1089     Zr1124   2.405       .  S
O1089      C1090   1.283       .  A
C1090      C1309   1.477       .  S
O1091     Zr1100   2.431   1_655  S
O1091      C1093   1.285       .  A
O1092     Zr1123   2.435       .  S
O1092      C1093   1.290       .  A
C1093      C1420   1.490       .  S
O1094     Zr1097   2.439       .  S
O1094      C1096   1.288       .  A
O1095     Zr1124   2.421       .  S
O1095      C1096   1.284       .  A
C1096      C1285   1.466       .  S
Zr1097     O1098   2.434       .  S
Zr1097     O1099   2.434       .  S
Zr1097     O1103   2.359       .  S
Zr1097     O1104   2.372       .  S
Zr1097     O1127   2.369       .  S
Zr1097     O1129   2.369       .  S
O1098      H1141   0.990       .  S
O1099      H1140   0.990       .  S
O1099      H1144   0.990       .  S
Zr1100     O1101   2.439       .  S
Zr1100     O1102   2.436       .  S
Zr1100     O1104   2.372       .  S
Zr1100     O1103   2.376       .  S
Zr1100     O1128   2.376       .  S
Zr1100     O1130   2.364       .  S
O1101      H1142   0.990       .  S
O1101      H1145   0.989       .  S
O1102      H1135   0.990       .  S
O1103     Zr1123   2.367   1_455  S
O1104     Zr1124   2.381       .  S
O1104      H1131   0.963       .  S
O1105     Zr1117   2.455       .  S
O1105      C1107   1.290       .  A
O1106     Zr1124   2.396       .  S
O1106      C1107   1.281       .  A
C1107      C1273   1.491       .  S
O1108     Zr1120   2.446   1_655  S
O1108      C1110   1.289       .  A
O1109     Zr1123   2.409       .  S
O1109      C1110   1.286       .  A
C1110      C1408   1.484       .  S
O1111     Zr1120   2.435       .  S
O1111      C1113   1.285       .  A
O1112     Zr1124   2.424       .  S
O1112      C1113   1.287       .  A
C1113      C1300   1.467       .  S
O1114     Zr1117   2.438   1_655  S
O1114      C1116   1.289       .  A
O1115     Zr1123   2.425       .  S
O1115      C1116   1.286       .  A
C1116      C1489   1.490       .  S
Zr1117     O1118   2.437       .  S
Zr1117     O1119   2.434       .  S
Zr1117     O1125   2.363       .  S
Zr1117     O1126   2.361       .  S
Zr1117     O1129   2.373       .  S
Zr1117     O1127   2.367       .  S
O1118      H1138   0.990       .  S
O1118      H1143   0.989       .  S
O1119      H1139   0.990       .  S
Zr1120     O1121   2.432       .  S
Zr1120     O1122   2.434       .  S
Zr1120     O1126   2.359       .  S
Zr1120     O1125   2.379       .  S
Zr1120     O1130   2.382       .  S
Zr1120     O1128   2.380       .  S
O1121      H1137   0.990       .  S
O1122      H1136   0.990       .  S
O1122      H1146   0.990       .  S
Zr1123     O1126   2.371   1_655  S
Zr1123     O1128   2.396   1_655  S
Zr1123     O1129   2.388   1_655  S
Zr1124     O1125   2.381       .  S
Zr1124     O1127   2.383       .  S
Zr1124     O1130   2.386       .  S
O1125      H1133   0.965       .  S
O1128      H1132   0.966   1_455  S
O1129      H1134   0.965   1_455  S
C1147      C1148   1.391       .  A
C1147      C1152   1.397       .  A
C1147      C1324   1.466       .  S
C1148      C1149   1.396       .  A
C1148      H1153   1.085       .  S
C1149      C1150   1.406       .  A
C1149      C1312   1.478       .  S
C1150      C1151   1.409       .  A
C1150      H1154   1.084       .  S
C1151      C1152   1.404       .  A
C1151      C1261   1.478       .  S
C1152      H1155   1.083       .  S
C1156      C1157   1.412       .  A
C1156      C1161   1.413       .  A
C1156      C1372   1.488       .  S
C1157      C1158   1.408       .  A
C1157      H1162   1.083       .  S
C1158      C1159   1.392       .  A
C1158      C2317   1.490       .  S
C1159      C1160   1.397       .  A
C1159      H1163   1.084       .  S
C1160      C1161   1.410       .  A
C1160      C1276   1.493       .  S
C1161      H1164   1.083       .  S
C1165      C1166   1.407       .  A
C1165      C1170   1.401       .  A
C1165      C1297   1.494       .  S
C1166      C1167   1.406       .  A
C1166      H1171   1.083       .  S
C1167      C1168   1.403       .  A
C1167      C1360   1.477       .  S
C1168      C1169   1.402       .  A
C1168      H1172   1.084       .  S
C1169      C1170   1.398       .  A
C1169      C1333   1.481       .  S
C1170      H1173   1.081       .  S
C1174      C1175   1.415       .  A
C1174      C1179   1.416       .  A
C1174      C1741   1.497       .  S
C1175      C1176   1.407       .  A
C1175      H1180   1.084       .  S
C1176      C1177   1.392       .  A
C1176      C1684   1.483       .  S
C1177      C1178   1.400       .  A
C1177      H1181   1.085       .  S
C1178      C1179   1.414       .  A
C1178      C1657   1.501       .  S
C1179      H1182   1.082       .  S
C1183      C1184   1.408       .  A
C1183      C1188   1.401       .  A
C1183      C2104   1.488       .  S
C1184      C1185   1.408       .  A
C1184      H1189   1.084       .  S
C1185      C1186   1.407       .  A
C1185      C2164   1.483       .  S
C1186      C1187   1.403       .  A
C1186      H1190   1.084       .  S
C1187      C1188   1.399       .  A
C1187      C2077   1.477       .  S
C1188      H1191   1.085       .  S
C1192      C1193   1.402       .  A
C1192      C1197   1.408       .  A
C1192      C2125   1.493       .  S
C1193      C1194   1.400       .  A
C1193      H1198   1.083       .  S
C1194      C1195   1.404       .  A
C1194      C1636   1.486       .  S
C1195      C1196   1.405       .  A
C1195      H1199   1.084       .  S
C1196      C1197   1.409       .  A
C1196      C1252   1.484       .  S
C1197      H1200   1.083       .  S
C1201      C1202   1.401       .  A
C1201      C1206   1.411       .  A
C1201      C1348   1.491       .  S
C1202      C1203   1.395       .  A
C1202      H1207   1.084       .  S
C1203      C1204   1.399       .  A
C1203      C1708   1.474       .  S
C1204      C1205   1.402       .  A
C1204      H1208   1.084       .  S
C1205      C1206   1.408       .  A
C1205      C1237   1.479       .  S
C1206      H1209   1.083       .  S
C1210      C1211   1.398       .  A
C1210      C1215   1.401       .  A
C1210      C1288   1.472       .  S
C1211      C1212   1.399       .  A
C1211      H1216   1.085       .  S
C1212      C1213   1.402       .  A
C1212      C2056   1.480       .  S
C1213      C1214   1.405       .  A
C1213      H1217   1.084       .  S
C1214      C1215   1.405       .  A
C1214      C1225   1.478       .  S
C1215      H1218   1.084       .  S
C1219      C1220   1.412       .  A
C1219      C1224   1.413       .  A
C1219      C1249   1.492       .  S
C1220      C1221   1.415       .  A
C1220      C2020   1.488       .  S
C1221      C1222   1.415       .  A
C1221      C1228   1.489       .  S
C1222      C1223   1.411       .  A
C1222      C1264   1.489       .  S
C1223      C1224   1.411       .  A
C1223      C1240   1.490       .  S
C1224      C1597   1.483       .  S
C1225      C1226   1.404       .  A
C1225      C1230   1.408       .  A
C1226      C1227   1.400       .  A
C1226      H1231   1.085       .  S
C1227      C1228   1.411       .  A
C1227      C1234   1.442       .  S
C1228      C1229   1.405       .  A
C1229      C1230   1.396       .  A
C1229      H1232   1.085       .  S
C1230      C1233   1.444       .  S
C1233      N1235   1.157       .  T
C1234      N1236   1.157       .  T
C1237      C1238   1.404       .  A
C1237      C1242   1.408       .  A
C1238      C1239   1.403       .  A
C1238      H1243   1.085       .  S
C1239      C1240   1.410       .  A
C1239      C1246   1.442       .  S
C1240      C1241   1.405       .  A
C1241      C1242   1.400       .  A
C1241      H1244   1.085       .  S
C1242      C1245   1.443       .  S
C1245      N1247   1.157       .  T
C1246      N1248   1.157       .  T
C1249      C1250   1.404       .  A
C1249      C1254   1.410       .  A
C1250      C1251   1.398       .  A
C1250      H1255   1.085       .  S
C1251      C1252   1.409       .  A
C1251      C1258   1.444       .  S
C1252      C1253   1.407       .  A
C1253      C1254   1.405       .  A
C1253      H1256   1.084       .  S
C1254      C1257   1.442       .  S
C1257      N1259   1.157       .  T
C1258      N1260   1.157       .  T
C1261      C1262   1.401       .  A
C1261      C1266   1.413       .  A
C1262      C1263   1.398       .  A
C1262      H1267   1.085       .  S
C1263      C1264   1.411       .  A
C1263      C1270   1.443       .  S
C1264      C1265   1.402       .  A
C1265      C1266   1.400       .  A
C1265      H1268   1.084       .  S
C1266      C1269   1.444       .  S
C1269      N1271   1.157       .  T
C1270      N1272   1.157       .  T
C1273      C1274   1.416       .  A
C1273      C1278   1.412       .  A
C1274      C1275   1.406       .  A
C1274      H1279   1.084       .  S
C1275      C1276   1.409       .  A
C1275      C1282   1.443       .  S
C1276      C1277   1.409       .  A
C1277      C1278   1.389       .  A
C1277      H1280   1.085       .  S
C1278      C1281   1.445       .  S
C1281      N1283   1.157       .  T
C1282      N1284   1.157       .  T
C1285      C1286   1.400       .  A
C1285      C1290   1.408       .  A
C1286      C1287   1.393       .  A
C1286      H1291   1.086       .  S
C1287      C1288   1.409       .  A
C1287      C1294   1.445       .  S
C1288      C1289   1.405       .  A
C1289      C1290   1.404       .  A
C1289      H1292   1.084       .  S
C1290      C1293   1.443       .  S
C1293      N1295   1.157       .  T
C1294      N1296   1.157       .  T
C1297      C1298   1.407       .  A
C1297      C1302   1.422       .  A
C1298      C1299   1.395       .  A
C1298      H1303   1.083       .  S
C1299      C1300   1.405       .  A
C1299      C1306   1.441       .  S
C1300      C1301   1.397       .  A
C1301      C1302   1.400       .  A
C1301      H1304   1.085       .  S
C1302      C1305   1.445       .  S
C1305      N1307   1.157       .  T
C1306      N1308   1.156       .  T
C1309      C1310   1.407       .  A
C1309      C1314   1.410       .  A
C1310      C1311   1.397       .  A
C1310      H1315   1.084       .  S
C1311      C1312   1.408       .  A
C1311      C1318   1.445       .  S
C1312      C1313   1.407       .  A
C1313      C1314   1.399       .  A
C1313      H1316   1.085       .  S
C1314      C1317   1.443       .  S
C1317      N1319   1.157       .  T
C1318      N1320   1.157       .  T
C1321      C1322   1.409       .  A
C1321      C1326   1.419       .  A
C1322      C1323   1.393       .  A
C1322      H1327   1.084       .  S
C1323      C1324   1.405       .  A
C1323      C1330   1.445       .  S
C1324      C1325   1.396       .  A
C1325      C1326   1.398       .  A
C1325      H1328   1.085       .  S
C1326      C1329   1.441       .  S
C1329      N1331   1.157       .  T
C1330      N1332   1.157       .  T
C1333      C1334   1.404       .  A
C1333      C1338   1.414       .  A
C1334      C1335   1.393       .  A
C1334      H1339   1.085       .  S
C1335      C1336   1.408       .  A
C1335      C1342   1.444       .  S
C1336      C1337   1.402       .  A
C1337      C1338   1.402       .  A
C1337      H1340   1.083       .  S
C1338      C1341   1.444       .  S
C1341      N1343   1.157       .  T
C1342      N1344   1.157       .  T
C1345      C1346   1.402       .  A
C1345      C1350   1.404       .  A
C1346      C1347   1.399       .  A
C1346      H1351   1.083       .  S
C1347      C1348   1.413       .  A
C1347      C1354   1.443       .  S
C1348      C1349   1.412       .  A
C1349      C1350   1.402       .  A
C1349      H1352   1.085       .  S
C1350      C1353   1.443       .  S
C1353      N1355   1.157       .  T
C1354      N1356   1.157       .  T
C1357      C1358   1.401       .  A
C1357      C1362   1.411       .  A
C1358      C1359   1.404       .  A
C1358      H1363   1.084       .  S
C1359      C1360   1.414       .  A
C1359      C1366   1.443       .  S
C1360      C1361   1.398       .  A
C1361      C1362   1.393       .  A
C1361      H1364   1.085       .  S
C1362      C1365   1.444       .  S
C1365      N1367   1.157       .  T
C1366      N1368   1.157       .  T
C1369      C1370   1.405       .  A
C1369      C1374   1.412       .  A
C1370      C1371   1.408       .  A
C1370      H1375   1.083       .  S
C1371      C1372   1.412       .  A
C1371      C1378   1.442       .  S
C1372      C1373   1.402       .  A
C1373      C1374   1.402       .  A
C1373      H1376   1.085       .  S
C1374      C1377   1.443       .  S
C1377      N1379   1.157       .  T
C1378      N1380   1.157       .  T
C1381      C1382   1.401       .  A
C1381      C1386   1.413       .  A
C1382      C1383   1.401       .  A
C1382      H1387   1.085       .  S
C1383      C1384   1.415       .  A
C1383      C1390   1.444       .  S
C1384      C1385   1.405       .  A
C1385      C1386   1.403       .  A
C1385      H1388   1.083       .  S
C1386      C1389   1.443       .  S
C1389      N1391   1.157       .  T
C1390      N1392   1.157       .  T
C1393      C1394   1.400       .  A
C1393      C1398   1.411       .  A
C1394      C1395   1.394       .  A
C1394      H1399   1.085       .  S
C1395      C1396   1.410       .  A
C1395      C1402   1.444       .  S
C1396      C1397   1.403       .  A
C1397      C1398   1.404       .  A
C1397      H1400   1.084       .  S
C1398      C1401   1.443       .  S
C1401      N1403   1.157       .  T
C1402      N1404   1.157       .  T
C1405      C1406   1.399       .  A
C1405      C1410   1.410       .  A
C1406      C1407   1.400       .  A
C1406      H1411   1.085       .  S
C1407      C1408   1.419       .  A
C1407      C1414   1.443       .  S
C1408      C1409   1.406       .  A
C1409      C1410   1.396       .  A
C1409      H1412   1.085       .  S
C1410      C1413   1.445       .  S
C1413      N1415   1.157       .  T
C1414      N1416   1.157       .  T
C1417      C1418   1.391       .  A
C1417      C1422   1.407       .  A
C1418      C1419   1.394       .  A
C1418      H1423   1.086       .  S
C1419      C1420   1.425       .  A
C1419      C1426   1.442       .  S
C1420      C1421   1.409       .  A
C1421      C1422   1.398       .  A
C1421      H1424   1.084       .  S
C1422      C1425   1.445       .  S
C1425      N1427   1.157       .  T
C1426      N1428   1.157   1_655  T
C1429      C1430   1.407       .  A
C1429      C1434   1.419       .  A
C1430      C1431   1.397       .  A
C1430      H1435   1.082       .  S
C1431      C1432   1.411       .  A
C1431      C1438   1.442       .  S
C1432      C1433   1.399       .  A
C1433      C1434   1.398       .  A
C1433      H1436   1.085       .  S
C1434      C1437   1.445       .  S
C1437      N1439   1.157       .  T
C1438      N1440   1.157       .  T
C1441      C1442   1.408       .  A
C1441      C1446   1.425       .  A
C1442      C1443   1.415       .  A
C1442      H1447   1.084       .  S
C1443      C1444   1.423       .  A
C1443      C1450   1.441       .  S
C1444      C1445   1.400       .  A
C1445      C1446   1.390       .  A
C1445      H1448   1.085       .  S
C1446      C1449   1.445       .  S
C1449      N1451   1.157       .  T
C1450      N1452   1.157       .  T
C1453      C1454   1.411       .  A
C1453      C1458   1.431       .  A
C1454      C1455   1.404       .  A
C1454      H1459   1.084       .  S
C1455      C1456   1.408       .  A
C1455      C1462   1.444       .  S
C1456      C1457   1.388       .  A
C1457      C1458   1.393       .  A
C1457      H1460   1.086       .  S
C1458      C1461   1.442       .  S
C1461      N1463   1.157       .  T
C1462      N1464   1.157       .  T
C1465      C1466   1.407       .  A
C1465      C1470   1.416       .  A
C1466      C1467   1.398       .  A
C1466      H1471   1.084       .  S
C1467      C1468   1.411       .  A
C1467      C1474   1.445       .  S
C1468      C1469   1.399       .  A
C1469      C1470   1.400       .  A
C1469      H1472   1.085       .  S
C1470      C1473   1.444       .  S
C1473      N1475   1.157       .  T
C1474      N1476   1.157       .  T
C1477      C1478   1.403       .  A
C1477      C1482   1.413       .  A
C1478      C1479   1.399       .  A
C1478      H1483   1.085       .  S
C1479      C1480   1.412       .  A
C1479      C1486   1.444       .  S
C1480      C1481   1.407       .  A
C1481      C1482   1.408       .  A
C1481      H1484   1.084       .  S
C1482      C1485   1.442       .  S
C1485      N1487   1.157       .  T
C1486      N1488   1.157       .  T
C1489      C1490   1.406       .  A
C1489      C1494   1.418       .  A
C1490      C1491   1.392       .  A
C1490      H1495   1.085       .  S
C1491      C1492   1.410       .  A
C1491      C1498   1.445       .  S
C1492      C1493   1.404       .  A
C1493      C1494   1.408       .  A
C1493      H1496   1.085       .  S
C1494      C1497   1.443       .  S
C1497      N1499   1.157       .  T
C1498      N1500   1.157       .  T
C1501      C1502   1.414       .  A
C1501      C1506   1.421       .  A
C1502      C1503   1.413       .  A
C1502      H1507   1.078       .  S
C1503      C1504   1.428       .  A
C1503      C1510   1.444       .  S
C1504      C1505   1.412       .  A
C1505      C1506   1.405       .  A
C1505      H1508   1.069       .  S
C1506      C1509   1.445       .  S
C1509      N1511   1.158       .  T
C1510      N1512   1.157       .  T
C1513      C1514   1.404       .  A
C1513      C1518   1.411       .  A
C1514      C1515   1.404       .  A
C1514      H1519   1.085       .  S
C1515      C1516   1.413       .  A
C1515      C1522   1.443       .  S
C1516      C1517   1.407       .  A
C1517      C1518   1.400       .  A
C1517      H1520   1.080       .  S
C1518      C1521   1.444       .  S
C1521      N1523   1.157       .  T
C1522      N1524   1.157       .  T
C1525      C1526   1.403       .  A
C1525      C1530   1.408       .  A
C1526      C1527   1.410       .  A
C1526      H1531   1.084       .  S
C1527      C1528   1.421       .  A
C1527      C1534   1.443       .  S
C1528      C1529   1.406       .  A
C1529      C1530   1.387       .  A
C1529      H1532   1.085       .  S
C1530      C1533   1.448       .  S
C1533      N1535   1.157       .  T
C1534      N1536   1.157       .  T
C1537      C1538   1.400       .  A
C1537      C1542   1.407       .  A
C1538      C1539   1.397       .  A
C1538      H1543   1.085       .  S
C1539      C1540   1.414       .  A
C1539      C1546   1.445       .  S
C1540      C1541   1.407       .  A
C1541      C1542   1.402       .  A
C1541      H1544   1.085       .  S
C1542      C1545   1.443       .  S
C1545      N1547   1.157       .  T
C1546      N1548   1.157       .  T
C1549      C1550   1.402       .  A
C1549      C1554   1.412       .  A
C1550      C1551   1.404       .  A
C1550      H1555   1.084       .  S
C1551      C1552   1.413       .  A
C1551      C1558   1.443       .  S
C1552      C1553   1.400       .  A
C1553      C1554   1.400       .  A
C1553      H1556   1.085       .  S
C1554      C1557   1.443       .  S
C1557      N1559   1.157       .  T
C1558      N1560   1.157       .  T
C1561      C1562   1.405       .  A
C1561      C1566   1.406       .  A
C1562      C1563   1.408       .  A
C1562      H1567   1.085       .  S
C1563      C1564   1.424       .  A
C1563      C1570   1.444       .  S
C1564      C1565   1.400       .  A
C1565      C1566   1.395       .  A
C1565      H1568   1.084       .  S
C1566      C1569   1.423       .  S
C1569      N1571   1.149       .  T
C1570      N1572   1.157       .  T
C1573      C1574   1.404       .  A
C1573      C1578   1.415       .  A
C1574      C1575   1.407       .  A
C1574      H1579   1.085       .  S
C1575      C1576   1.417       .  A
C1575      C1582   1.443       .  S
C1576      C1577   1.403       .  A
C1577      C1578   1.404       .  A
C1577      H1580   1.083       .  S
C1578      C1581   1.439       .  S
C1581      N1583   1.156       .  T
C1582      N1584   1.157       .  T
C1585      C1586   1.406       .  A
C1585      C1590   1.418       .  A
C1586      C1587   1.409       .  A
C1586      H1591   1.084       .  S
C1587      C1588   1.417       .  A
C1587      C1594   1.443       .  S
C1588      C1589   1.402       .  A
C1589      C1590   1.403       .  A
C1589      H1592   1.085       .  S
C1590      C1593   1.445       .  S
C1593      N1595   1.157       .  T
C1594      N1596   1.157       .  T
C1597      C1598   1.404       .  A
C1597      C1602   1.407       .  A
C1598      C1599   1.397       .  A
C1598      H1603   1.085       .  S
C1599      C1600   1.406       .  A
C1599      C1606   1.444       .  S
C1600      C1601   1.406       .  A
C1601      C1602   1.402       .  A
C1601      H1604   1.085       .  S
C1602      C1605   1.442       .  S
C1605      N1607   1.157       .  T
C1606      N1608   1.157       .  T
C1609      C1610   1.395       .  A
C1609      C1614   1.411       .  A
C1610      C1611   1.380       .  A
C1610      H1615   1.087       .  S
C1611      C1612   1.425   1_556  A
C1611      C1618   1.447       .  S
C1612      C1613   1.412       .  A
C1613      C1614   1.412   1_554  A
C1613      H1616   1.084       .  S
C1614      C1617   1.442       .  S
C1617      N1619   1.157       .  T
C1618      N1620   1.157       .  T
C1621      C1622   1.399   1_554  A
C1621      C1626   1.408       .  A
C1622      C1623   1.395       .  A
C1622      H1627   1.086       .  S
C1623      C1624   1.411       .  A
C1623      C1630   1.440       .  S
C1624      C1625   1.410       .  A
C1625      C1626   1.409   1_556  A
C1625      H1628   1.084       .  S
C1626      C1629   1.442       .  S
C1629      N1631   1.157       .  T
C1630      N1632   1.156       .  T
C1633      C1634   1.402       .  A
C1633      C1638   1.412       .  A
C1634      C1635   1.397       .  A
C1634      H1639   1.085       .  S
C1635      C1636   1.415       .  A
C1635      C1642   1.445       .  S
C1636      C1637   1.405       .  A
C1637      C1638   1.403       .  A
C1637      H1640   1.085       .  S
C1638      C1641   1.444       .  S
C1641      N1643   1.157       .  T
C1642      N1644   1.157       .  T
C1645      C1646   1.401       .  A
C1645      C1650   1.408       .  A
C1646      C1647   1.404       .  A
C1646      H1651   1.084       .  S
C1647      C1648   1.415       .  A
C1647      C1654   1.443       .  S
C1648      C1649   1.403       .  A
C1649      C1650   1.392       .  A
C1649      H1652   1.085       .  S
C1650      C1653   1.446       .  S
C1653      N1655   1.157       .  T
C1654      N1656   1.157       .  T
C1657      C1658   1.409       .  A
C1657      C1662   1.412       .  A
C1658      C1659   1.391       .  A
C1658      H1663   1.084       .  S
C1659      C1660   1.414       .  A
C1659      C1666   1.446       .  S
C1660      C1661   1.416       .  A
C1661      C1662   1.411       .  A
C1661      H1664   1.084       .  S
C1662      C1665   1.442       .  S
C1665      N1667   1.157       .  T
C1666      N1668   1.157       .  T
C1669      C1670   1.412       .  A
C1669      C1674   1.425   1_554  A
C1670      C1671   1.402   1_554  A
C1670      H1675   1.084       .  S
C1671      C1672   1.406       .  A
C1671      C1678   1.444   1_556  S
C1672      C1673   1.396       .  A
C1673      C1674   1.400       .  A
C1673      H1676   1.086       .  S
C1674      C1677   1.443       .  S
C1677      N1679   1.157       .  T
C1678      N1680   1.157       .  T
C1681      C1682   1.405       .  A
C1681      C1686   1.421       .  A
C1682      C1683   1.399       .  A
C1682      H1687   1.085       .  S
C1683      C1684   1.412       .  A
C1683      C1690   1.445       .  S
C1684      C1685   1.402       .  A
C1685      C1686   1.408       .  A
C1685      H1688   1.084       .  S
C1686      C1689   1.443       .  S
C1689      N1691   1.157       .  T
C1690      N1692   1.157       .  T
C1693      C1694   1.398       .  A
C1693      C1698   1.407       .  A
C1694      C1695   1.392       .  A
C1694      H1699   1.085       .  S
C1695      C1696   1.415       .  A
C1695      C1702   1.444       .  S
C1696      C1697   1.409       .  A
C1697      C1698   1.406       .  A
C1697      H1700   1.084       .  S
C1698      C1701   1.443       .  S
C1701      N1703   1.157       .  T
C1702      N1704   1.157       .  T
C1705      C1706   1.405       .  A
C1705      C1710   1.417       .  A
C1706      C1707   1.398       .  A
C1706      H1711   1.085       .  S
C1707      C1708   1.410       .  A
C1707      C1714   1.445       .  S
C1708      C1709   1.398       .  A
C1709      C1710   1.398       .  A
C1709      H1712   1.085       .  S
C1710      C1713   1.442       .  S
C1713      N1715   1.157       .  T
C1714      N1716   1.157       .  T
C1717      C1718   1.395       .  A
C1717      C1722   1.404       .  A
C1718      C1719   1.392       .  A
C1718      H1723   1.086       .  S
C1719      C1720   1.421       .  A
C1719      C1726   1.445       .  S
C1720      C1721   1.409       .  A
C1721      C1722   1.399       .  A
C1721      H1724   1.084       .  S
C1722      C1725   1.443       .  S
C1725      N1727   1.157       .  T
C1726      N1728   1.157       .  T
C1729      C1730   1.405       .  A
C1729      C1734   1.407       .  A
C1730      C1731   1.398       .  A
C1730      H1735   1.085       .  S
C1731      C1732   1.412       .  A
C1731      C1738   1.444       .  S
C1732      C1733   1.403       .  A
C1733      C1734   1.389       .  A
C1733      H1736   1.085       .  S
C1734      C1737   1.440       .  S
C1737      N1739   1.156       .  T
C1738      N1740   1.157       .  T
C1741      C1742   1.407       .  A
C1741      C1746   1.412       .  A
C1742      C1743   1.411       .  A
C1742      H1747   1.084       .  S
C1743      C1744   1.416       .  A
C1743      C1750   1.442       .  S
C1744      C1745   1.406       .  A
C1745      C1746   1.404       .  A
C1745      H1748   1.085       .  S
C1746      C1749   1.444       .  S
C1749      N1751   1.157       .  T
C1750      N1752   1.157       .  T
C1753      C1754   1.401       .  A
C1753      C1758   1.412       .  A
C1754      C1755   1.390       .  A
C1754      H1759   1.084       .  S
C1755      C1756   1.409       .  A
C1755      C1762   1.439       .  S
C1756      C1757   1.403       .  A
C1757      C1758   1.397       .  A
C1757      H1760   1.085       .  S
C1758      C1761   1.444       .  S
C1761      N1763   1.157       .  T
C1762      N1764   1.156       .  T
C1765      C1766   1.405       .  A
C1765      C1770   1.415       .  A
C1766      C1767   1.408       .  A
C1766      H1771   1.079       .  S
C1767      C1768   1.433       .  A
C1767      C1774   1.444       .  S
C1768      C1769   1.409       .  A
C1769      C1770   1.404       .  A
C1769      H1772   1.079       .  S
C1770      C1773   1.441       .  S
C1773      N1775   1.158       .  T
C1774      N1776   1.158       .  T
C1777      C1778   1.401       .  A
C1777      C1782   1.408       .  A
C1778      C1779   1.406       .  A
C1778      H1783   1.084       .  S
C1779      C1780   1.417       .  A
C1779      C1786   1.444       .  S
C1780      C1781   1.408       .  A
C1781      C1782   1.399       .  A
C1781      H1784   1.081       .  S
C1782      C1785   1.444       .  S
C1785      N1787   1.157       .  T
C1786      N1788   1.157       .  T
C1789      C1790   1.409       .  A
C1789      C1794   1.426       .  A
C1790      C1791   1.402       .  A
C1790      H1795   1.082       .  S
C1791      C1792   1.408       .  A
C1791      C1798   1.438       .  S
C1792      C1793   1.400       .  A
C1793      C1794   1.405       .  A
C1793      H1796   1.085       .  S
C1794      C1797   1.444       .  S
C1797      N1799   1.157       .  T
C1798      N1800   1.155       .  T
C1801      C1802   1.407       .  A
C1801      C1806   1.407       .  A
C1802      C1803   1.407       .  A
C1802      H1807   1.084       .  S
C1803      C1804   1.408       .  A
C1803      C1810   1.442       .  S
C1804      C1805   1.402       .  A
C1805      C1806   1.392       .  A
C1805      H1808   1.086       .  S
C1806      C1809   1.445       .  S
C1809      N1811   1.157       .  T
C1810      N1812   1.157   1_565  T
C1813      C1814   1.398       .  A
C1813      C1818   1.409       .  A
C1814      C1815   1.390       .  A
C1814      H1819   1.086       .  S
C1815      C1816   1.413       .  A
C1815      C1822   1.446       .  S
C1816      C1817   1.405       .  A
C1817      C1818   1.406       .  A
C1817      H1820   1.084       .  S
C1818      C1821   1.442       .  S
C1821      N1823   1.157       .  T
C1822      N1824   1.157       .  T
C1825      C1826   1.407       .  A
C1825      C1830   1.418       .  A
C1826      C1827   1.399       .  A
C1826      H1831   1.085       .  S
C1827      C1828   1.413       .  A
C1827      C1834   1.444       .  S
C1828      C1829   1.406       .  A
C1829      C1830   1.406       .  A
C1829      H1832   1.085       .  S
C1830      C1833   1.443       .  S
C1833      N1835   1.157       .  T
C1834      N1836   1.157       .  T
C1837      C1838   1.411       .  A
C1837      C1842   1.417       .  A
C1838      C1839   1.402       .  A
C1838      H1843   1.084       .  S
C1839      C1840   1.407       .  A
C1839      C1846   1.444       .  S
C1840      C1841   1.404       .  A
C1841      C1842   1.406       .  A
C1841      H1844   1.085       .  S
C1842      C1845   1.444       .  S
C1845      N1847   1.157       .  T
C1846      N1848   1.157       .  T
C1849      C1850   1.404       .  A
C1849      C1854   1.412       .  A
C1850      C1851   1.394       .  A
C1850      H1855   1.085       .  S
C1851      C1852   1.408       .  A
C1851      C1858   1.444       .  S
C1852      C1853   1.407       .  A
C1853      C1854   1.411       .  A
C1853      H1856   1.084       .  S
C1854      C1857   1.442       .  S
C1857      N1859   1.157       .  T
C1858      N1860   1.157       .  T
C1861      C1862   1.405       .  A
C1861      C1866   1.418       .  A
C1862      C1863   1.400       .  A
C1862      H1867   1.080       .  S
C1863      C1864   1.411       .  A
C1863      C1870   1.443       .  S
C1864      C1865   1.400       .  A
C1865      C1866   1.403       .  A
C1865      H1868   1.085       .  S
C1866      C1869   1.442       .  S
C1869      N1871   1.157       .  T
C1870      N1872   1.157       .  T
C1873      C1874   1.400       .  A
C1873      C1878   1.415       .  A
C1874      C1875   1.399       .  A
C1874      H1879   1.085       .  S
C1875      C1876   1.416       .  A
C1875      C1882   1.441       .  S
C1876      C1877   1.403       .  A
C1877      C1878   1.400       .  A
C1877      H1880   1.082       .  S
C1878      C1881   1.442       .  S
C1881      N1883   1.157       .  T
C1882      N1884   1.156       .  T
C1885      C1886   1.399       .  A
C1885      C1890   1.412       .  A
C1886      C1887   1.398       .  A
C1886      H1891   1.085       .  S
C1887      C1888   1.411       .  A
C1887      C1894   1.442       .  S
C1888      C1889   1.402       .  A
C1889      C1890   1.403       .  A
C1889      H1892   1.084       .  S
C1890      C1893   1.442       .  S
C1893      N1895   1.157       .  T
C1894      N1896   1.157       .  T
C1897      C1898   1.410       .  A
C1897      C1902   1.416       .  A
C1898      C1899   1.391       .  A
C1898      H1903   1.084       .  S
C1899      C1900   1.402       .  A
C1899      C1906   1.445   1_565  S
C1900      C1901   1.403       .  A
C1901      C1902   1.403       .  A
C1901      H1904   1.085       .  S
C1902      C1905   1.443       .  S
C1905      N1907   1.157       .  T
C1906      N1908   1.157       .  T
C1909      C1910   1.408       .  A
C1909      C1914   1.413       .  A
C1910      C1911   1.395       .  A
C1910      H1915   1.085       .  S
C1911      C1912   1.409       .  A
C1911      C1918   1.445       .  S
C1912      C1913   1.404       .  A
C1913      C1914   1.397       .  A
C1913      H1916   1.085       .  S
C1914      C1917   1.444       .  S
C1917      N1919   1.157       .  T
C1918      N1920   1.157       .  T
C1921      C1922   1.396       .  A
C1921      C1926   1.410       .  A
C1922      C1923   1.393       .  A
C1922      H1927   1.085       .  S
C1923      C1924   1.414       .  A
C1923      C1930   1.442       .  S
C1924      C1925   1.403       .  A
C1925      C1926   1.405       .  A
C1925      H1928   1.084       .  S
C1926      C1929   1.442       .  S
C1929      N1931   1.157       .  T
C1930      N1932   1.156       .  T
C1933      C1934   1.407       .  A
C1933      C1938   1.408       .  A
C1934      C1935   1.409       .  A
C1934      H1939   1.084       .  S
C1935      C1936   1.409       .  A
C1935      C1942   1.443       .  S
C1936      C1937   1.401       .  A
C1937      C1938   1.390       .  A
C1937      H1940   1.086       .  S
C1938      C1941   1.443       .  S
C1941      N1943   1.157       .  T
C1942      N1944   1.157       .  T
C1945      C1946   1.401       .  A
C1945      C1950   1.411       .  A
C1946      C1947   1.402       .  A
C1946      H1951   1.085       .  S
C1947      C1948   1.411       .  A
C1947      C1954   1.443       .  S
C1948      C1949   1.398       .  A
C1949      C1950   1.392       .  A
C1949      H1952   1.085       .  S
C1950      C1953   1.444       .  S
C1953      N1955   1.157       .  T
C1954      N1956   1.157       .  T
C1957      C1958   1.400       .  A
C1957      C1962   1.404       .  A
C1958      C1959   1.397       .  A
C1958      H1963   1.085       .  S
C1959      C1960   1.413       .  A
C1959      C1966   1.445       .  S
C1960      C1961   1.409       .  A
C1961      C1962   1.400       .  A
C1961      H1964   1.085       .  S
C1962      C1965   1.444       .  S
C1965      N1967   1.157       .  T
C1966      N1968   1.157       .  T
C1969      C1970   1.397       .  A
C1969      C1974   1.412       .  A
C1970      C1971   1.396       .  A
C1970      H1975   1.085       .  S
C1971      C1972   1.413       .  A
C1971      C1978   1.442       .  S
C1972      C1973   1.404       .  A
C1973      C1974   1.407       .  A
C1973      H1976   1.084       .  S
C1974      C1977   1.442       .  S
C1977      N1979   1.157       .  T
C1978      N1980   1.156       .  T
C1981      C1982   1.404       .  A
C1981      C1986   1.417       .  A
C1982      C1983   1.400       .  A
C1982      H1987   1.085       .  S
C1983      C1984   1.414       .  A
C1983      C1990   1.445       .  S
C1984      C1985   1.402       .  A
C1985      C1986   1.404       .  A
C1985      H1988   1.085       .  S
C1986      C1989   1.442       .  S
C1989      N1991   1.157       .  T
C1990      N1992   1.157       .  T
C1993      C1994   1.407       .  A
C1993      C1998   1.430       .  A
C1994      C1995   1.401       .  A
C1994      H1999   1.071       .  S
C1995      C1996   1.413       .  A
C1995      C2002   1.445       .  S
C1996      C1997   1.404       .  A
C1997      C1998   1.405       .  A
C1997      H2000   1.083       .  S
C1998      C2001   1.441       .  S
C2001      N2003   1.158       .  T
C2002      N2004   1.157       .  T
C2005      C2006   1.404       .  A
C2005      C2010   1.402       .  A
C2006      C2007   1.402       .  A
C2006      H2011   1.085       .  S
C2007      C2008   1.416       .  A
C2007      C2014   1.444       .  S
C2008      C2009   1.413       .  A
C2009      C2010   1.400       .  A
C2009      H2012   1.084       .  S
C2010      C2013   1.444       .  S
C2013      N2015   1.157       .  T
C2014      N2016   1.157       .  T
C2017      C2018   1.404       .  A
C2017      C2022   1.407       .  A
C2018      C2019   1.404       .  A
C2018      H2023   1.084       .  S
C2019      C2020   1.411       .  A
C2019      C2026   1.442       .  S
C2020      C2021   1.403       .  A
C2021      C2022   1.395       .  A
C2021      H2024   1.085       .  S
C2022      C2025   1.444       .  S
C2025      N2027   1.157       .  T
C2026      N2028   1.157       .  T
C2029      C2030   1.398       .  A
C2029      C2034   1.412       .  A
C2030      C2031   1.393       .  A
C2030      H2035   1.085       .  S
C2031      C2032   1.412       .  A
C2031      C2038   1.445       .  S
C2032      C2033   1.401       .  A
C2033      C2034   1.404       .  A
C2033      H2036   1.084       .  S
C2034      C2037   1.443       .  S
C2037      N2039   1.157       .  T
C2038      N2040   1.157       .  T
C2041      C2042   1.407       .  A
C2041      C2046   1.419       .  A
C2042      C2043   1.385       .  A
C2042      H2047   1.083       .  S
C2043      C2044   1.416       .  A
C2043      C2050   1.447       .  S
C2044      C2045   1.411       .  A
C2045      C2046   1.413       .  A
C2045      H2048   1.084       .  S
C2046      C2049   1.442       .  S
C2049      N2051   1.157       .  T
C2050      N2052   1.157       .  T
C2053      C2054   1.402       .  A
C2053      C2058   1.417       .  A
C2054      C2055   1.398       .  A
C2054      H2059   1.085       .  S
C2055      C2056   1.414       .  A
C2055      C2062   1.445       .  S
C2056      C2057   1.400       .  A
C2057      C2058   1.400       .  A
C2057      H2060   1.085       .  S
C2058      C2061   1.445       .  S
C2061      N2063   1.157       .  T
C2062      N2064   1.157       .  T
C2065      C2066   1.411       .  A
C2065      C2070   1.414       .  A
C2066      C2067   1.413       .  A
C2066      H2071   1.084       .  S
C2067      C2068   1.416       .  A
C2067      C2074   1.442       .  S
C2068      C2069   1.408       .  A
C2069      C2070   1.380       .  A
C2069      H2072   1.085       .  S
C2070      C2073   1.449       .  S
C2073      N2075   1.158       .  T
C2074      N2076   1.157       .  T
C2077      C2078   1.399       .  A
C2077      C2082   1.411       .  A
C2078      C2079   1.395       .  A
C2078      H2083   1.086       .  S
C2079      C2080   1.415       .  A
C2079      C2086   1.445       .  S
C2080      C2081   1.405       .  A
C2081      C2082   1.407       .  A
C2081      H2084   1.084       .  S
C2082      C2085   1.442       .  S
C2085      N2087   1.157       .  T
C2086      N2088   1.157       .  T
C2089      C2090   1.407       .  A
C2089      C2094   1.410       .  A
C2090      C2091   1.397       .  A
C2090      H2095   1.085       .  S
C2091      C2092   1.411       .  A
C2091      C2098   1.443       .  S
C2092      C2093   1.409       .  A
C2093      C2094   1.402       .  A
C2093      H2096   1.085       .  S
C2094      C2097   1.443       .  S
C2097      N2099   1.157       .  T
C2098      N2100   1.157       .  T
C2101      C2102   1.409       .  A
C2101      C2106   1.413       .  A
C2102      C2103   1.407       .  A
C2102      H2107   1.085       .  S
C2103      C2104   1.410       .  A
C2103      C2110   1.443       .  S
C2104      C2105   1.405       .  A
C2105      C2106   1.398       .  A
C2105      H2108   1.085       .  S
C2106      C2109   1.445       .  S
C2109      N2111   1.157       .  T
C2110      N2112   1.157       .  T
C2113      C2114   1.400       .  A
C2113      C2118   1.413       .  A
C2114      C2115   1.400       .  A
C2114      H2119   1.085       .  S
C2115      C2116   1.422       .  A
C2115      C2122   1.444       .  S
C2116      C2117   1.407       .  A
C2117      C2118   1.402       .  A
C2117      H2120   1.084       .  S
C2118      C2121   1.444       .  S
C2121      N2123   1.157       .  T
C2122      N2124   1.157       .  T
C2125      C2126   1.411       .  A
C2125      C2130   1.416       .  A
C2126      C2127   1.402       .  A
C2126      H2131   1.085       .  S
C2127      C2128   1.406       .  A
C2127      C2134   1.444       .  S
C2128      C2129   1.400       .  A
C2129      C2130   1.399       .  A
C2129      H2132   1.083       .  S
C2130      C2133   1.443       .  S
C2133      N2135   1.157       .  T
C2134      N2136   1.157       .  T
C2137      C2138   1.412       .  A
C2137      C2142   1.425       .  A
C2138      C2139   1.415       .  A
C2138      H2143   1.084       .  S
C2139      C2140   1.420       .  A
C2139      C2146   1.442       .  S
C2140      C2141   1.403       .  A
C2141      C2142   1.395       .  A
C2141      H2144   1.085       .  S
C2142      C2145   1.444       .  S
C2145      N2147   1.157       .  T
C2146      N2148   1.157       .  T
C2149      C2150   1.413       .  A
C2149      C2154   1.419       .  A
C2150      C2151   1.411       .  A
C2150      H2155   1.084       .  S
C2151      C2152   1.406       .  A
C2151      C2158   1.441       .  S
C2152      C2153   1.394       .  A
C2153      C2154   1.388       .  A
C2153      H2156   1.087       .  S
C2154      C2157   1.443       .  S
C2157      N2159   1.156       .  T
C2158      N2160   1.157       .  T
C2161      C2162   1.403       .  A
C2161      C2166   1.414       .  A
C2162      C2163   1.404       .  A
C2162      H2167   1.083       .  S
C2163      C2164   1.412       .  A
C2163      C2170   1.443       .  S
C2164      C2165   1.401       .  A
C2165      C2166   1.403       .  A
C2165      H2168   1.085       .  S
C2166      C2169   1.444       .  S
C2169      N2171   1.157       .  T
C2170      N2172   1.157       .  T
C2173      C2174   1.408       .  A
C2173      C2178   1.416       .  A
C2174      C2175   1.401       .  A
C2174      H2179   1.083       .  S
C2175      C2176   1.413       .  A
C2175      C2182   1.444       .  S
C2176      C2177   1.401       .  A
C2177      C2178   1.405       .  A
C2177      H2180   1.085       .  S
C2178      C2181   1.443       .  S
C2181      N2183   1.157       .  T
C2182      N2184   1.157       .  T
C2185      C2186   1.414       .  A
C2185      C2190   1.422       .  A
C2186      C2187   1.402       .  A
C2186      H2191   1.070       .  S
C2187      C2188   1.413       .  A
C2187      C2194   1.445       .  S
C2188      C2189   1.412       .  A
C2189      C2190   1.405       .  A
C2189      H2192   1.081       .  S
C2190      C2193   1.444       .  S
C2193      N2195   1.157       .  T
C2194      N2196   1.157       .  T
C2197      C2198   1.407       .  A
C2197      C2202   1.408       .  A
C2198      C2199   1.405       .  A
C2198      H2203   1.084       .  S
C2199      C2200   1.410       .  A
C2199      C2206   1.442       .  S
C2200      C2201   1.404       .  A
C2201      C2202   1.397       .  A
C2201      H2204   1.084       .  S
C2202      C2205   1.444       .  S
C2205      N2207   1.157       .  T
C2206      N2208   1.157       .  T
C2209      C2210   1.410       .  A
C2209      C2214   1.424       .  A
C2210      C2211   1.403       .  A
C2210      H2215   1.084       .  S
C2211      C2212   1.408       .  A
C2211      C2218   1.444       .  S
C2212      C2213   1.396       .  A
C2213      C2214   1.395       .  A
C2213      H2216   1.086       .  S
C2214      C2217   1.444       .  S
C2217      N2219   1.157       .  T
C2218      N2220   1.157       .  T
C2221      C2222   1.395       .  A
C2221      C2226   1.408       .  A
C2222      C2223   1.399       .  A
C2222      H2227   1.085       .  S
C2223      C2224   1.425       .  A
C2223      C2230   1.444       .  S
C2224      C2225   1.406       .  A
C2225      C2226   1.396       .  A
C2225      H2228   1.084       .  S
C2226      C2229   1.445       .  S
C2229      N2231   1.157       .  T
C2230      N2232   1.157       .  T
C2233      C2234   1.411       .  A
C2233      C2238   1.428       .  A
C2234      C2235   1.399       .  A
C2234      H2239   1.076       .  S
C2235      C2236   1.404       .  A
C2235      C2242   1.444       .  S
C2236      C2237   1.393       .  A
C2237      C2238   1.399       .  A
C2237      H2240   1.085       .  S
C2238      C2241   1.445       .  S
C2241      N2243   1.157       .  T
C2242      N2244   1.157       .  T
C2245      C2246   1.408       .  A
C2245      C2250   1.420       .  A
C2246      C2247   1.407       .  A
C2246      H2251   1.084       .  S
C2247      C2248   1.412       .  A
C2247      C2254   1.443       .  S
C2248      C2249   1.396       .  A
C2249      C2250   1.394       .  A
C2249      H2252   1.086       .  S
C2250      C2253   1.444       .  S
C2253      N2255   1.157       .  T
C2254      N2256   1.157   1_556  T
C2257      C2258   1.400       .  A
C2257      C2262   1.402       .  A
C2258      C2259   1.407       .  A
C2258      H2263   1.085       .  S
C2259      C2260   1.422       .  A
C2259      C2266   1.441       .  S
C2260      C2261   1.412       .  A
C2261      C2262   1.391       .  A
C2261      H2264   1.084       .  S
C2262      C2265   1.446       .  S
C2265      N2267   1.157       .  T
C2266      N2268   1.157   1_565  T
C2269      C2270   1.413       .  A
C2269      C2274   1.429       .  A
C2270      C2271   1.408       .  A
C2270      H2275   1.083       .  S
C2271      C2272   1.407       .  A
C2271      C2278   1.443       .  S
C2272      C2273   1.389       .  A
C2273      C2274   1.392       .  A
C2273      H2276   1.087       .  S
C2274      C2277   1.443       .  S
C2277      N2279   1.157       .  T
C2278      N2280   1.157       .  T
C2281      C2282   1.401       .  A
C2281      C2286   1.411       .  A
C2282      C2283   1.400       .  A
C2282      H2287   1.085       .  S
C2283      C2284   1.412       .  A
C2283      C2290   1.443       .  S
C2284      C2285   1.404       .  A
C2285      C2286   1.405       .  A
C2285      H2288   1.083       .  S
C2286      C2289   1.443       .  S
C2289      N2291   1.157       .  T
C2290      N2292   1.157       .  T
C2293      C2294   1.411       .  A
C2293      C2298   1.426       .  A
C2294      C2295   1.407       .  A
C2294      H2299   1.084       .  S
C2295      C2296   1.409       .  A
C2295      C2302   1.444       .  S
C2296      C2297   1.395       .  A
C2297      C2298   1.396       .  A
C2297      H2300   1.086       .  S
C2298      C2301   1.444       .  S
C2301      N2303   1.157       .  T
C2302      N2304   1.157   1_556  T
C2305      C2306   1.401       .  A
C2305      C2310   1.411       .  A
C2306      C2307   1.401       .  A
C2306      H2311   1.085       .  S
C2307      C2308   1.413       .  A
C2307      C2314   1.444       .  S
C2308      C2309   1.406       .  A
C2309      C2310   1.406       .  A
C2309      H2312   1.084       .  S
C2310      C2313   1.444       .  S
C2313      N2315   1.157       .  T
C2314      N2316   1.157       .  T
C2317      C2318   1.411       .  A
C2317      C2322   1.416       .  A
C2318      C2319   1.403       .  A
C2318      H2323   1.085       .  S
C2319      C2320   1.406       .  A
C2319      C2326   1.443       .  S
C2320      C2321   1.402       .  A
C2321      C2322   1.401       .  A
C2321      H2324   1.085       .  S
C2322      C2325   1.444       .  S
C2325      N2327   1.157       .  T
C2326      N2328   1.157       .  T
C2329      C2330   1.407       .  A
C2329      C2334   1.405       .  A
C2330      C2331   1.405       .  A
C2330      H2335   1.085       .  S
C2331      C2332   1.409       .  A
C2331      C2338   1.443       .  S
C2332      C2333   1.401       .  A
C2333      C2334   1.388       .  A
C2333      H2336   1.082       .  S
C2334      C2337   1.444       .  S
C2337      N2339   1.157       .  T
C2338      N2340   1.157       .  T
C2341      C2342   1.398       .  A
C2341      C2346   1.407       .  A
C2342      C2343   1.403       .  A
C2342      H2347   1.085       .  S
C2343      C2344   1.419       .  A
C2343      C2350   1.441       .  S
C2344      C2345   1.406       .  A
C2345      C2346   1.394       .  A
C2345      H2348   1.083       .  S
C2346      C2349   1.445       .  S
C2349      N2351   1.157       .  T
C2350      N2352   1.157       .  T
C2353      C2354   1.402       .  A
C2353      C2358   1.409       .  A
C2354      C2355   1.405       .  A
C2354      H2359   1.085       .  S
C2355      C2356   1.415       .  A
C2355      C2362   1.443       .  S
C2356      C2357   1.404       .  A
C2357      C2358   1.398       .  A
C2357      H2360   1.085       .  S
C2358      C2361   1.444       .  S
C2361      N2363   1.157       .  T
C2362      N2364   1.157       .  T
C2365      C2366   1.406       .  A
C2365      C2370   1.408       .  A
C2366      C2367   1.409       .  A
C2366      H2371   1.084       .  S
C2367      C2368   1.412       .  A
C2367      C2374   1.442       .  S
C2368      C2369   1.401       .  A
C2369      C2370   1.394       .  A
C2369      H2372   1.083       .  S
C2370      C2373   1.445       .  S
C2373      N2375   1.157       .  T
C2374      N2376   1.157       .  T
C2377      C2378   1.408       .  A
C2377      C2382   1.415       .  A
C2378      C2379   1.407       .  A
C2378      H2383   1.085       .  S
C2379      C2380   1.409       .  A
C2379      C2386   1.443       .  S
C2380      C2381   1.401       .  A
C2381      C2382   1.403       .  A
C2381      H2384   1.085       .  S
C2382      C2385   1.440       .  S
C2385      N2387   1.157       .  T
C2386      N2388   1.157       .  T
C2389      C2390   1.411       .  A
C2389      C2394   1.415       .  A
C2390      C2391   1.405       .  A
C2390      H2395   1.081       .  S
C2391      C2392   1.420       .  A
C2391      C2398   1.444       .  S
C2392      C2393   1.406       .  A
C2393      C2394   1.396       .  A
C2393      H2396   1.084       .  S
C2394      C2397   1.442       .  S
C2397      N2399   1.158       .  T
C2398      N2400   1.157       .  T
C2401      C2402   1.399       .  A
C2401      C2406   1.410       .  A
C2402      C2403   1.404       .  A
C2402      H2407   1.085       .  S
C2403      C2404   1.419       .  A
C2403      C2410   1.443       .  S
C2404      C2405   1.404       .  A
C2405      C2406   1.393       .  A
C2405      H2408   1.085       .  S
C2406      C2409   1.446       .  S
C2409      N2411   1.157       .  T
C2410      N2412   1.157       .  T
C2413      C2414   1.413       .  A
C2413      C2418   1.416       .  A
C2414      C2415   1.402       .  A
C2414      H2419   1.085       .  S
C2415      C2416   1.406       .  A
C2415      C2422   1.444       .  S
C2416      C2417   1.401       .  A
C2417      C2418   1.402       .  A
C2417      H2420   1.084       .  S
C2418      C2421   1.442       .  S
C2421      N2423   1.157       .  T
C2422      N2424   1.157       .  T
C2425      C2426   1.403       .  A
C2425      C2430   1.413       .  A
C2426      C2427   1.408       .  A
C2426      H2431   1.085       .  S
C2427      C2428   1.417       .  A
C2427      C2434   1.442       .  S
C2428      C2429   1.407       .  A
C2429      C2430   1.402       .  A
C2429      H2432   1.079       .  S
C2430      C2433   1.444       .  S
C2433      N2435   1.157       .  T
C2434      N2436   1.157       .  T
C2437      C2438   1.404       .  A
C2437      C2442   1.414       .  A
C2438      C2439   1.403       .  A
C2438      H2443   1.085       .  S
C2439      C2440   1.413       .  A
C2439      C2446   1.444       .  S
C2440      C2441   1.400       .  A
C2441      C2442   1.400       .  A
C2441      H2444   1.084       .  S
C2442      C2445   1.445       .  S
C2445      N2447   1.157       .  T
C2446      N2448   1.157       .  T
C2449      C2450   1.400       .  A
C2449      C2454   1.420       .  A
C2450      C2451   1.388       .  A
C2450      H2455   1.085   1_556  S
C2451      C2452   1.421       .  A
C2451      C2458   1.446       .  S
C2452      C2453   1.404       .  A
C2453      C2454   1.402       .  A
C2453      H2456   1.084       .  S
C2454      C2457   1.445       .  S
C2457      N2459   1.157       .  T
C2458      N2460   1.157       .  T
C2461      C2462   1.406       .  A
C2461      C2466   1.410       .  A
C2462      C2463   1.404       .  A
C2462      H2467   1.085       .  S
C2463      C2464   1.417       .  A
C2463      C2470   1.443       .  S
C2464      C2465   1.405       .  A
C2465      C2466   1.399       .  A
C2465      H2468   1.081       .  S
C2466      C2469   1.444       .  S
C2469      N2471   1.157       .  T
C2470      N2472   1.157       .  T
C2473      C2474   1.414       .  A
C2473      C2478   1.418       .  A
C2474      C2475   1.400       .  A
C2474      H2479   1.084       .  S
C2475      C2476   1.404       .  A
C2475      C2482   1.444       .  S
C2476      C2477   1.401       .  A
C2477      C2478   1.400       .  A
C2477      H2480   1.084       .  S
C2478      C2481   1.442       .  S
C2481      N2483   1.157       .  T
C2482      N2484   1.157       .  T
C2485      C2486   1.401       .  A
C2485      C2490   1.413       .  A
C2486      C2487   1.396       .  A
C2486      H2491   1.085       .  S
C2487      C2488   1.410       .  A
C2487      C2494   1.445       .  S
C2488      C2489   1.400       .  A
C2489      C2490   1.401       .  A
C2489      H2492   1.085       .  S
C2490      C2493   1.444       .  S
C2493      N2495   1.157       .  T
C2494      N2496   1.157       .  T
C2497      C2498   1.401       .  A
C2497      C2502   1.405       .  A
C2498      C2499   1.397       .  A
C2498      H2503   1.085       .  S
C2499      C2500   1.413       .  A
C2499      C2506   1.445       .  S
C2500      C2501   1.408       .  A
C2501      C2502   1.400       .  A
C2501      H2504   1.085       .  S
C2502      C2505   1.444       .  S
C2505      N2507   1.157       .  T
C2506      N2508   1.157       .  T
C2509      C2510   1.398       .  A
C2509      C2514   1.412       .  A
C2510      C2511   1.397       .  A
C2510      H2515   1.085       .  S
C2511      C2512   1.414       .  A
C2511      C2518   1.446       .  S
C2512      C2513   1.403       .  A
C2513      C2514   1.406       .  A
C2513      H2516   1.084       .  S
C2514      C2517   1.443       .  S
C2517      N2519   1.157       .  T
C2518      N2520   1.157       .  T
C2521      C2522   1.395       .  A
C2521      C2526   1.408       .  A
C2522      C2523   1.394       .  A
C2522      H2527   1.086       .  S
C2523      C2524   1.426       .  A
C2523      C2530   1.446       .  S
C2524      C2525   1.411       .  A
C2525      C2526   1.406       .  A
C2525      H2528   1.084       .  S
C2526      C2529   1.443       .  S
C2529      N2531   1.157       .  T
C2530      N2532   1.158       .  T
C2533      C2534   1.403       .  A
C2533      C2538   1.415       .  A
C2534      C2535   1.402       .  A
C2534      H2539   1.085       .  S
C2535      C2536   1.412       .  A
C2535      C2542   1.444       .  S
C2536      C2537   1.400       .  A
C2537      C2538   1.395       .  A
C2537      H2540   1.085       .  S
C2538      C2541   1.446       .  S
C2541      N2543   1.157       .  T
C2542      N2544   1.157       .  T
C2545      C2546   1.401       .  A
C2545      C2550   1.409       .  A
C2546      C2547   1.403       .  A
C2546      H2551   1.085       .  S
C2547      C2548   1.422       .  A
C2547      C2554   1.442       .  S
C2548      C2549   1.407       .  A
C2549      C2550   1.402       .  A
C2549      H2552   1.083       .  S
C2550      C2553   1.443       .  S
C2553      N2555   1.157       .  T
C2554      N2556   1.158       .  T
C2557      C2558   1.404       .  A
C2557      C2562   1.405       .  A
C2558      C2559   1.407       .  A
C2558      H2563   1.085       .  S
C2559      C2560   1.418       .  A
C2559      C2566   1.442       .  S
C2560      C2561   1.412       .  A
C2561      C2562   1.394       .  A
C2561      H2564   1.084       .  S
C2562      C2565   1.446       .  S
C2565      N2567   1.157       .  T
C2566      N2568   1.157       .  T
C2569      C2570   1.401       .  A
C2569      C2574   1.413       .  A
C2570      C2571   1.397       .  A
C2570      H2575   1.085       .  S
C2571      C2572   1.417       .  A
C2571      C2578   1.446       .  S
C2572      C2573   1.404       .  A
C2573      C2574   1.403       .  A
C2573      H2576   1.085       .  S
C2574      C2577   1.444       .  S
C2577      N2579   1.157       .  T
C2578      N2580   1.157       .  T
C2581      C2582   1.396       .  A
C2581      C2586   1.407       .  A
C2582      C2583   1.397       .  A
C2582      H2587   1.085       .  S
C2583      C2584   1.423       .  A
C2583      C2590   1.445       .  S
C2584      C2585   1.409       .  A
C2585      C2586   1.398       .  A
C2585      H2588   1.084       .  S
C2586      C2589   1.444       .  S
C2589      N2591   1.157       .  T
C2590      N2592   1.157       .  T
C2593      C2594   1.395       .  A
C2593      C2598   1.405       .  A
C2594      C2595   1.390       .  A
C2594      H2599   1.086       .  S
C2595      C2596   1.422       .  A
C2595      C2602   1.445       .  S
C2596      C2597   1.411       .  A
C2597      C2598   1.404       .  A
C2597      H2600   1.084       .  S
C2598      C2601   1.443       .  S
C2601      N2603   1.157       .  T
C2602      N2604   1.157       .  T
C2605      C2606   1.409       .  A
C2605      C2610   1.417       .  A
C2606      C2607   1.409       .  A
C2606      H2611   1.084       .  S
C2607      C2608   1.418       .  A
C2607      C2614   1.440       .  S
C2608      C2609   1.406       .  A
C2609      C2610   1.397       .  A
C2609      H2612   1.075       .  S
C2610      C2613   1.444       .  S
C2613      N2615   1.157       .  T
C2614      N2616   1.157       .  T
C2617      C2618   1.401       .  A
C2617      C2622   1.404       .  A
C2618      C2619   1.400       .  A
C2618      H2623   1.085       .  S
C2619      C2620   1.417       .  A
C2619      C2626   1.444       .  S
C2620      C2621   1.411       .  A
C2621      C2622   1.398       .  A
C2621      H2624   1.084       .  S
C2622      C2625   1.444       .  S
C2625      N2627   1.157       .  T
C2626      N2628   1.157       .  T
C2629      C2630   1.398       .  A
C2629      C2634   1.407       .  A
C2630      C2631   1.400       .  A
C2630      H2635   1.085       .  S
C2631      C2632   1.421       .  A
C2631      C2638   1.444       .  S
C2632      C2633   1.409       .  A
C2633      C2634   1.398       .  A
C2633      H2636   1.084       .  S
C2634      C2637   1.445       .  S
C2637      N2639   1.157       .  T
C2638      N2640   1.157       .  T
C2641      C2642   1.398       .  A
C2641      C2646   1.411       .  A
C2642      C2643   1.394       .  A
C2642      H2647   1.085       .  S
C2643      C2644   1.412       .  A
C2643      C2650   1.444       .  S
C2644      C2645   1.401       .  A
C2645      C2646   1.402       .  A
C2645      H2648   1.085       .  S
C2646      C2649   1.444       .  S
C2649      N2651   1.157       .  T
C2650      N2652   1.157       .  T
C2653      C2654   1.408       .  A
C2653      C2658   1.429       .  A
C2654      C2655   1.396       .  A
C2654      H2659   1.081       .  S
C2655      C2656   1.404       .  A
C2655      C2662   1.436       .  S
C2656      C2657   1.400       .  A
C2657      C2658   1.409       .  A
C2657      H2660   1.085       .  S
C2658      C2661   1.444       .  S
C2661      N2663   1.157       .  T
C2662      N2664   1.154       .  T
C2665      C2666   1.400       .  A
C2665      C2670   1.410       .  A
C2666      C2667   1.400       .  A
C2666      H2671   1.085       .  S
C2667      C2668   1.413       .  A
C2667      C2674   1.441       .  S
C2668      C2669   1.404       .  A
C2669      C2670   1.402       .  A
C2669      H2672   1.081       .  S
C2670      C2673   1.443       .  S
C2673      N2675   1.157       .  T
C2674      N2676   1.156       .  T
C2677      C2678   1.403       .  A
C2677      C2682   1.408       .  A
C2678      C2679   1.404       .  A
C2678      H2683   1.084       .  S
C2679      C2680   1.413       .  A
C2679      C2686   1.443   1_565  S
C2680      C2681   1.403       .  A
C2681      C2682   1.392       .  A
C2681      H2684   1.085       .  S
C2682      C2685   1.445       .  S
C2685      N2687   1.157       .  T
C2686      N2688   1.157       .  T
C2689      C2690   1.400       .  A
C2689      C2694   1.406       .  A
C2690      C2691   1.401       .  A
C2690      H2695   1.085       .  S
C2691      C2692   1.420       .  A
C2691      C2698   1.443       .  S
C2692      C2693   1.412       .  A
C2693      C2694   1.399       .  A
C2693      H2696   1.084       .  S
C2694      C2697   1.445       .  S
C2697      N2699   1.157       .  T
C2698      N2700   1.157       .  T
C2701      C2702   1.407       .  A
C2701      C2706   1.417       .  A
C2702      C2703   1.411       .  A
C2702      H2707   1.084       .  S
C2703      C2704   1.419       .  A
C2703      C2710   1.442       .  S
C2704      C2705   1.405       .  A
C2705      C2706   1.387       .  A
C2705      H2708   1.084       .  S
C2706      C2709   1.448       .  S
C2709      N2711   1.157       .  T
C2710      N2712   1.157       .  T
C2713      C2714   1.404       .  A
C2713      C2718   1.404       .  A
C2714      C2715   1.405       .  A
C2714      H2719   1.085       .  S
C2715      C2716   1.416       .  A
C2715      C2722   1.443       .  S
C2716      C2717   1.412       .  A
C2717      C2718   1.390       .  A
C2717      H2720   1.084       .  S
C2718      C2721   1.446       .  S
C2721      N2723   1.157       .  T
C2722      N2724   1.157   1_565  T
C2725      C2726   1.408       .  A
C2725      C2730   1.428       .  A
C2726      C2727   1.394       .  A
C2726      H2731   1.079       .  S
C2727      C2728   1.408       .  A
C2727      C2734   1.439       .  S
C2728      C2729   1.410       .  A
C2729      C2730   1.409       .  A
C2729      H2732   1.083       .  S
C2730      C2733   1.444       .  S
C2733      N2735   1.157       .  T
C2734      N2736   1.157       .  T
C2737      C2738   1.400       .  A
C2737      C2742   1.409       .  A
C2738      C2739   1.394       .  A
C2738      H2743   1.086       .  S
C2739      C2740   1.411       .  A
C2739      C2746   1.443       .  S
C2740      C2741   1.406       .  A
C2741      C2742   1.405       .  A
C2741      H2744   1.085       .  S
C2742      C2745   1.443       .  S
C2745      N2747   1.157       .  T
C2746      N2748   1.157       .  T
C2749      C2750   1.406       .  A
C2749      C2754   1.424       .  A
C2750      C2751   1.407       .  A
C2750      H2755   1.083       .  S
C2751      C2752   1.412       .  A
C2751      C2758   1.436       .  S
C2752      C2753   1.401       .  A
C2753      C2754   1.403       .  A
C2753      H2756   1.085       .  S
C2754      C2757   1.446       .  S
C2757      N2759   1.157       .  T
C2758      N2760   1.154       .  T
C2761      C2762   1.410       .  A
C2761      C2766   1.424       .  A
C2762      C2763   1.415       .  A
C2762      H2767   1.084       .  S
C2763      C2764   1.431       .  A
C2763      C2770   1.442       .  S
C2764      C2765   1.407       .  A
C2765      C2766   1.402       .  A
C2765      H2768   1.076       .  S
C2766      C2769   1.443       .  S
C2769      N2771   1.157       .  T
C2770      N2772   1.157       .  T
C2773      C2774   1.407       .  A
C2773      C2778   1.420   1_554  A
C2774      C2775   1.397   1_554  A
C2774      H2779   1.085       .  S
C2775      C2776   1.409       .  A
C2775      C2782   1.443       .  S
C2776      C2777   1.399       .  A
C2777      C2778   1.395       .  A
C2777      H2780   1.085       .  S
C2778      C2781   1.445       .  S
C2781      N2783   1.157       .  T
C2782      N2784   1.157       .  T
C2785      C2786   1.404       .  A
C2785      C2790   1.409       .  A
C2786      C2787   1.407       .  A
C2786      H2791   1.084       .  S
C2787      C2788   1.417       .  A
C2787      C2794   1.443       .  S
C2788      C2789   1.405   1_556  A
C2789      C2790   1.383   1_554  A
C2789      H2792   1.085       .  S
C2790      C2793   1.447   1_556  S
C2793      N2795   1.157       .  T
C2794      N2796   1.157       .  T
C2797      C2798   1.397       .  A
C2797      C2802   1.410       .  A
C2798      C2799   1.392       .  A
C2798      H2803   1.085       .  S
C2799      C2800   1.411       .  A
C2799      C2806   1.443       .  S
C2800      C2801   1.401       .  A
C2801      C2802   1.400       .  A
C2801      H2804   1.084       .  S
C2802      C2805   1.442       .  S
C2805      N2807   1.157       .  T
C2806      N2808   1.157       .  T
C2809      C2810   1.403       .  A
C2809      C2814   1.414       .  A
C2810      C2811   1.406       .  A
C2810      H2815   1.084       .  S
C2811      C2812   1.413       .  A
C2811      C2818   1.443       .  S
C2812      C2813   1.398       .  A
C2813      C2814   1.398       .  A
C2813      H2816   1.085       .  S
C2814      C2817   1.443       .  S
C2817      N2819   1.157       .  T
C2818      N2820   1.157       .  T
C2821      C2822   1.403       .  A
C2821      C2826   1.408       .  A
C2822      C2823   1.395       .  A
C2822      H2827   1.085       .  S
C2823      C2824   1.406       .  A
C2823      C2830   1.444       .  S
C2824      C2825   1.404       .  A
C2825      C2826   1.402       .  A
C2825      H2828   1.085       .  S
C2826      C2829   1.442       .  S
C2829      N2831   1.157       .  T
C2830      N2832   1.157       .  T
C2833      C2834   1.402       .  A
C2833      C2838   1.414       .  A
C2834      C2835   1.403       .  A
C2834      H2839   1.084       .  S
C2835      C2836   1.412       .  A
C2835      C2842   1.443       .  S
C2836      C2837   1.399       .  A
C2837      C2838   1.399       .  A
C2837      H2840   1.085       .  S
C2838      C2841   1.443       .  S
C2841      N2843   1.157       .  T
C2842      N2844   1.157       .  T
C2845      C2846   1.397       .  A
C2845      C2850   1.407       .  A
C2846      C2847   1.402       .  A
C2846      H2851   1.085       .  S
C2847      C2848   1.425       .  A
C2847      C2854   1.444   1_565  S
C2848      C2849   1.409       .  A
C2849      C2850   1.399       .  A
C2849      H2852   1.084       .  S
C2850      C2853   1.444       .  S
C2853      N2855   1.157       .  T
C2854      N2856   1.158       .  T
C2857      C2858   1.413       .  A
C2857      C2862   1.421       .  A
C2858      C2859   1.400       .  A
C2858      H2863   1.084       .  S
C2859      C2860   1.406       .  A
C2859      C2866   1.444       .  S
C2860      C2861   1.403       .  A
C2861      C2862   1.405       .  A
C2861      H2864   1.084       .  S
C2862      C2865   1.442       .  S
C2865      N2867   1.157       .  T
C2866      N2868   1.157       .  T
C2869      C2870   1.401       .  A
C2869      C2874   1.414       .  A
C2870      C2871   1.402       .  A
C2870      H2875   1.085       .  S
C2871      C2872   1.413       .  A
C2871      C2878   1.444       .  S
C2872      C2873   1.402       .  A
C2873      C2874   1.404       .  A
C2873      H2876   1.083       .  S
C2874      C2877   1.443       .  S
C2877      N2879   1.157       .  T
C2878      N2880   1.157       .  T
C2881      C2882   1.403       .  A
C2881      C2886   1.410       .  A
C2882      C2883   1.406       .  A
C2882      H2887   1.085       .  S
C2883      C2884   1.415       .  A
C2883      C2890   1.444       .  S
C2884      C2885   1.403       .  A
C2885      C2886   1.399       .  A
C2885      H2888   1.085       .  S
C2886      C2889   1.444       .  S
C2889      N2891   1.157       .  T
C2890      N2892   1.157       .  T
C2893      C2894   1.400       .  A
C2893      C2898   1.411       .  A
C2894      C2895   1.390       .  A
C2894      H2899   1.086       .  S
C2895      C2896   1.423       .  A
C2895      C2902   1.445       .  S
C2896      C2897   1.415       .  A
C2897      C2898   1.412       .  A
C2897      H2900   1.084       .  S
C2898      C2901   1.442       .  S
C2901      N2903   1.157       .  T
C2902      N2904   1.157       .  T
C2905      C2906   1.406       .  A
C2905      C2910   1.410       .  A
C2906      C2907   1.408       .  A
C2906      H2911   1.084       .  S
C2907      C2908   1.411       .  A
C2907      C2914   1.441       .  S
C2908      C2909   1.404       .  A
C2909      C2910   1.402       .  A
C2909      H2912   1.085       .  S
C2910      C2913   1.444       .  S
C2913      N2915   1.157       .  T
C2914      N2916   1.157       .  T
C2917      C2918   1.404       .  A
C2917      C2922   1.412       .  A
C2918      C2919   1.406       .  A
C2918      H2923   1.084       .  S
C2919      C2920   1.414       .  A
C2919      C2926   1.443       .  S
C2920      C2921   1.403       .  A
C2921      C2922   1.400       .  A
C2921      H2924   1.085       .  S
C2922      C2925   1.444       .  S
C2925      N2927   1.157   1_556  T
C2926      N2928   1.157       .  T
C2929      C2930   1.405       .  A
C2929      C2934   1.416       .  A
C2930      C2931   1.391       .  A
C2930      H2935   1.085       .  S
C2931      C2932   1.418       .  A
C2931      C2938   1.446   1_556  S
C2932      C2933   1.411       .  A
C2933      C2934   1.411       .  A
C2933      H2936   1.084       .  S
C2934      C2937   1.443       .  S
C2937      N2939   1.157       .  T
C2938      N2940   1.157       .  T
C2941      C2942   1.402       .  A
C2941      C2946   1.412       .  A
C2942      C2943   1.403       .  A
C2942      H2947   1.085       .  S
C2943      C2944   1.412       .  A
C2943      C2950   1.443       .  S
C2944      C2945   1.405       .  A
C2945      C2946   1.407       .  A
C2945      H2948   1.083       .  S
C2946      C2949   1.443       .  S
C2949      N2951   1.157       .  T
C2950      N2952   1.157       .  T
