geometry optimzed in LAMMPS
_audit_creation_date              2020-11-30 
_audit_creation_method            'lammps2cif' 
_symmetry_space_group_name_H-M    'P1' 
_symmetry_Int_Tables_number       1 
_symmetry_cell_setting            triclinic 
loop_ 
_symmetry_equiv_pos_as_xyz 
  x,y,z 
_cell_length_a                    53.76696204 
_cell_length_b                    53.88891513843136 
_cell_length_c                    53.300431782367916 
_cell_angle_alpha                 90.05141842951194 
_cell_angle_beta                  89.57883290959907 
_cell_angle_gamma                 89.73790084207914 
loop_ 
_atom_site_label 
_atom_site_type_symbol 
_atom_site_fract_x 
_atom_site_fract_y 
_atom_site_fract_z 
_atom_site_charge 
O1          O  0.24093098  0.68542212  0.74119107    -0.80400
O2          O  0.23598099  0.79606325  0.77301041    -0.80400
O3          O  0.23865582  0.71685339  0.81739202    -0.80400
O4          O  0.21227734  0.74151984  0.71345654    -0.80300
O5          O  0.22488347  0.75229277  0.80211324    -0.80500
O6          O  0.23921944  0.71535516  0.69844451    -0.80400
O7          O  0.21180612  0.77739191  0.74811059    -0.80400
O8          O  0.22026091  0.70412662  0.77173490    -0.80400
C9          C  0.22387258  0.68505462  0.75793509     1.09300
C10         C  0.21718835  0.79716868  0.75904230     1.09200
C11         C  0.22420097  0.73529547  0.81958469     1.09300
C12         C  0.21859540  0.72681037  0.69629663     1.09200
O13         O  0.28822647  0.73401872  0.70988041    -0.80400
O14         O  0.26564027  0.77945991  0.80965443    -0.80500
O15         O  0.26919559  0.69141864  0.78218531    -0.80400
O16         O  0.26114707  0.79426533  0.73135027    -0.80400
O17         O  0.28446249  0.78118584  0.76224859    -0.80400
O18         O  0.29066945  0.70401120  0.75082194    -0.80400
O19         O  0.26005248  0.75806653  0.69371112    -0.80300
O20         O  0.27953914  0.74143931  0.80320231    -0.80400
Co21       Co  0.26417390  0.71184709  0.72690707     1.51500
Co22       Co  0.25564201  0.76452903  0.77967736     1.51700
Co23       Co  0.24915365  0.72418111  0.78421815     1.51600
Co24       Co  0.23712373  0.76607455  0.72367327     1.51500
O25         O  0.25174434  0.74111466  0.74929781    -1.42300
C26         C  0.28073872  0.74652862  0.69143685     1.09200
C27         C  0.27947446  0.76184565  0.81662415     1.09300
C28         C  0.28538597  0.68649202  0.76536450     1.09300
C29         C  0.27957365  0.79778125  0.74592251     1.09200
O30         O  0.73631937  0.23715101  0.68240818    -0.80400
O31         O  0.77103902  0.24362264  0.79677661    -0.80400
O32         O  0.79287859  0.21191291  0.74029557    -0.80400
O33         O  0.71669435  0.21083364  0.74145062    -0.80300
O34         O  0.80856017  0.24155348  0.76234197    -0.80500
O35         O  0.69859515  0.23699617  0.71711668    -0.80400
O36         O  0.75109519  0.21433397  0.77824948    -0.80400
O37         O  0.75761216  0.21041182  0.70333108    -0.80400
C38         C  0.74813948  0.21668958  0.68286666     1.09300
C39         C  0.76009987  0.22279163  0.79807180     1.09200
C40         C  0.81070995  0.21980426  0.75324854     1.09300
C41         C  0.69794627  0.21629697  0.72864745     1.09200
O42         O  0.71365127  0.28683147  0.73398094    -0.80400
O43         O  0.79234954  0.28864366  0.74046053    -0.80500
O44         O  0.77595219  0.25825911  0.68344296    -0.80400
O45         O  0.73054918  0.26297833  0.79340275    -0.80400
O46         O  0.75333272  0.29011285  0.77433719    -0.80400
O47         O  0.75213273  0.28604376  0.70060663    -0.80400
O48         O  0.69590571  0.25908381  0.75664654    -0.80300
O49         O  0.81063067  0.25897136  0.72030864    -0.80400
Co50       Co  0.72751835  0.26135231  0.71109013     1.51500
Co51       Co  0.77893052  0.26527811  0.76586825     1.51700
Co52       Co  0.78160977  0.23549455  0.71418627     1.51600
Co53       Co  0.72609629  0.23727175  0.76506177     1.51500
O54         O  0.75361128  0.24996812  0.73905842    -1.42300
C55         C  0.69447760  0.27988354  0.74553795     1.09200
C56         C  0.81162787  0.28072321  0.72942542     1.09300
C57         C  0.76435935  0.27887179  0.68182110     1.09300
C58         C  0.74152163  0.28385715  0.79372673     1.09200
O59         O  0.70211724  0.75694873  0.21614120    -0.80400
O60         O  0.79650649  0.74643973  0.22223377    -0.80400
O61         O  0.73580470  0.80302316  0.22843087    -0.80400
O62         O  0.76301816  0.69931294  0.23757304    -0.80300
O63         O  0.76657317  0.78697062  0.20757869    -0.80500
O64         O  0.73323651  0.71062083  0.21104999    -0.80400
O65         O  0.78689358  0.71307661  0.24488486    -0.80400
O66         O  0.69754688  0.78369476  0.24728206    -0.80400
C67         C  0.68999109  0.77471949  0.22670077     1.09300
C68         C  0.80165034  0.72449037  0.22942362     1.09200
C69         C  0.74964922  0.80316618  0.20918223     1.09300
C70         C  0.75059593  0.69541098  0.21740281     1.09200
O71         O  0.72033983  0.69922494  0.26137573    -0.80400
O72         O  0.76791939  0.80593232  0.26058519    -0.80500
O73         O  0.72030919  0.76389180  0.29107271    -0.80400
O74         O  0.79048968  0.72795311  0.28304821    -0.80400
O75         O  0.79682507  0.76655652  0.27173269    -0.80400
O76         O  0.69442739  0.74245016  0.26746006    -0.80400
O77         O  0.75314016  0.69257994  0.28507847    -0.80300
O78         O  0.73015883  0.81295844  0.27706551    -0.80400
Co79       Co  0.71540000  0.72981887  0.23846139     1.51500
Co80       Co  0.77888669  0.77389228  0.24027074     1.51700
Co81       Co  0.73205843  0.78190799  0.26029512     1.51600
Co82       Co  0.75666497  0.72338744  0.26681842     1.51500
O83         O  0.74708014  0.75171163  0.24598285    -1.42300
C84         C  0.73184515  0.68557298  0.27743096     1.09200
C85         C  0.75258468  0.81990635  0.27348754     1.09300
C86         C  0.69991197  0.75210468  0.28854352     1.09300
C87         C  0.80370653  0.74747976  0.28339104     1.09200
C88         C  0.52001984  0.00204696  0.00812220     0.02000
C89         C  0.52025881  0.02021999  0.98826237     0.02000
C90         C  0.50042264  0.01989046  0.96959056     0.02000
C91         C  0.48028803  0.00172168  0.97102684     0.02000
C92         C  0.47948808  0.98482622  0.99230593     0.02000
C93         C  0.49905615  0.98559737  0.01084696     0.02000
C94         C  0.69978523  0.97430800  0.15013809     0.80000
N95         N  0.68141262  0.97302685  0.13279953    -0.78300
C96         C  0.66690930  0.99301400  0.12737849     0.82400
N97         N  0.67115929  0.01489952  0.13945916    -0.78300
C98         C  0.68976348  0.01702236  0.15659915     0.82500
N99         N  0.70392508  0.99647956  0.16214656    -0.80000
C100        C  0.68540362  0.17784573  0.96734546     0.80000
N101        N  0.66706068  0.16049011  0.96751111    -0.78300
C102        C  0.65349858  0.15594424  0.98869887     0.82400
N103        N  0.65892914  0.16885389  0.00993027    -0.78300
C104        C  0.67729275  0.18616685  0.01024526     0.82500
N105        N  0.69027552  0.19062939  0.98873848    -0.80000
C106        C  0.32175182  0.97360109  0.80300591     0.80000
N107        N  0.34004810  0.97322133  0.82061036    -0.78300
C108        C  0.34505103  0.99356633  0.83484757     0.82400
N109        N  0.33142861  0.01452042  0.83129706    -0.78300
C110        C  0.31327558  0.01589877  0.81375099     0.82500
N111        N  0.30827768  0.99515844  0.79952557    -0.80000
C112        C  0.52875759  0.16812911  0.79762979     0.80000
N113        N  0.52801147  0.14995633  0.81529569    -0.78300
C114        C  0.50645387  0.14483272  0.82756076     0.82400
N115        N  0.48568993  0.15797299  0.82233393    -0.78300
C116        C  0.48602161  0.17662390  0.80528144     0.82500
N117        N  0.50775359  0.18174668  0.79280658    -0.80000
C118        C  0.51919028  0.84322319  0.18618591     0.80000
N119        N  0.49776724  0.83630661  0.19803166    -0.78300
C120        C  0.47559985  0.84705473  0.19188961     0.82400
N121        N  0.47532685  0.86491483  0.17392286    -0.78300
C122        C  0.49653948  0.87220614  0.16215547     0.82500
N123        N  0.51837121  0.86113025  0.16831111    -0.80000
C124        C  0.32767100  0.81602825  0.99060834     0.80000
N125        N  0.34478974  0.83437459  0.98906312    -0.78300
C126        C  0.35055775  0.84816886  0.00943559     0.82400
N127        N  0.33889808  0.84386973  0.03170282    -0.78300
C128        C  0.32150675  0.82568503  0.03363821     0.82500
N129        N  0.31595958  0.81169298  0.01300956    -0.80000
C130        C  0.97499900  0.47750489  0.00151872     0.02000
C131        C  0.99578517  0.47827867  0.98355448     0.02000
C132        C  0.01503071  0.49725496  0.98568803     0.02000
C133        C  0.01334868  0.51480968  0.00634834     0.02000
C134        C  0.99455899  0.51206180  0.02583805     0.02000
C135        C  0.97480756  0.49407389  0.02311523     0.02000
C136        C  0.16404817  0.68354243  0.98978903     0.80000
N137        N  0.14382640  0.66855351  0.98902002    -0.78300
C138        C  0.13631936  0.65571936  0.00960610     0.82400
N139        N  0.14918686  0.65799960  0.03135766    -0.78300
C140        C  0.16946370  0.67294428  0.03270926     0.82500
N141        N  0.17701800  0.68569884  0.01174798    -0.80000
C142        C  0.16799048  0.51264459  0.81208387     0.80000
N143        N  0.15138757  0.51280310  0.83166462    -0.78300
C144        C  0.14714110  0.49182814  0.84542229     0.82400
N145        N  0.15983212  0.47067285  0.83961413    -0.78300
C146        C  0.17655422  0.47001239  0.82031797     0.82500
N147        N  0.18060284  0.49110860  0.80661062    -0.80000
C148        C  0.97616288  0.65201477  0.20195951     0.80000
N149        N  0.99653422  0.65918543  0.21528652    -0.78300
C150        C  0.01894741  0.64739638  0.21216073     0.82400
N151        N  0.02087704  0.62865605  0.19514633    -0.78300
C152        C  0.00095020  0.62139129  0.18158008     0.82500
N153        N  0.97874435  0.63298117  0.18532046    -0.80000
C154        C  0.82141284  0.47672390  0.19448984     0.80000
N155        N  0.80863600  0.49815307  0.20029223    -0.78300
C156        C  0.81126886  0.51882443  0.18550664     0.82400
N157        N  0.82628859  0.51751665  0.16495968    -0.78300
C158        C  0.83925251  0.49668203  0.15894696     0.82500
N159        N  0.83681272  0.47639997  0.17401368    -0.80000
C160        C  0.01919723  0.32050469  0.81829652     0.80000
N161        N  0.99883793  0.31545614  0.80391428    -0.78300
C162        C  0.97584000  0.32480614  0.81047005     0.82400
N163        N  0.97378703  0.33937034  0.83136588    -0.78300
C164        C  0.99372881  0.34477485  0.84580122     0.82500
N165        N  0.01613742  0.33513192  0.83887423    -0.80000
C166        C  0.81104461  0.32434288  0.01015157     0.80000
N167        N  0.82829148  0.34258552  0.00807508    -0.78300
C168        C  0.83206199  0.35465150  0.98607144     0.82400
N169        N  0.81821174  0.34860426  0.96578768    -0.78300
C170        C  0.80049268  0.33067034  0.96728714     0.82500
N171        N  0.79698977  0.31842501  0.98961246    -0.80000
C172        C  0.50260840  0.48398546  0.52866141     0.02000
C173        C  0.52164050  0.48362340  0.50960832     0.02000
C174        C  0.52139195  0.50207964  0.49003438     0.02000
C175        C  0.50401180  0.52251700  0.49105434     0.02000
C176        C  0.48520148  0.52300936  0.51036714     0.02000
C177        C  0.48534649  0.50448298  0.52988957     0.02000
C178        C  0.48191298  0.30309597  0.66754101     0.80000
N179        N  0.50420955  0.30032082  0.67958719    -0.78300
C180        C  0.52369052  0.31581558  0.67409741     0.82400
N181        N  0.52069054  0.33384294  0.65640999    -0.78300
C182        C  0.49853500  0.33672964  0.64451870     0.82500
N183        N  0.47942936  0.32145742  0.65032358    -0.80000
C184        C  0.31147983  0.66679263  0.47662571     0.80000
N185        N  0.30662125  0.68117004  0.49724957    -0.78300
C186        C  0.32022291  0.67787246  0.51858666     0.82400
N187        N  0.33874646  0.66050295  0.51884633    -0.78300
C188        C  0.34366563  0.64645119  0.49813705     0.82500
N189        N  0.32982376  0.64962259  0.47735311    -0.80000
C190        C  0.65385337  0.47473325  0.30507252     0.80000
N191        N  0.63590497  0.47136183  0.32270935    -0.78300
C192        C  0.62698779  0.49050842  0.33658060     0.82400
N193        N  0.63643448  0.51360877  0.33293927    -0.78300
C194        C  0.65452362  0.51750320  0.31541660     0.82500
N195        N  0.66310176  0.49797574  0.30144864    -0.80000
C196        C  0.48977455  0.68809074  0.33647549     0.80000
N197        N  0.51145054  0.70055183  0.33107534    -0.78300
C198        C  0.53257654  0.69635105  0.34487690     0.82400
N199        N  0.53176835  0.67940323  0.36367775    -0.78300
C200        C  0.51059358  0.66705067  0.36942819     0.82500
N201        N  0.48969210  0.67159787  0.35590515    -0.80000
C202        C  0.33746260  0.47284637  0.68679178     0.80000
N203        N  0.35924294  0.47657630  0.67396559    -0.78300
C204        C  0.37120096  0.49884679  0.67525010     0.82400
N205        N  0.36118927  0.51728933  0.68948153    -0.78300
C206        C  0.33957577  0.51428145  0.70241096     0.82500
N207        N  0.32767282  0.49184972  0.70100912    -0.80000
C208        C  0.68559888  0.33340899  0.47445554     0.80000
N209        N  0.66850312  0.35166636  0.47891608    -0.78300
C210        C  0.66760662  0.36357893  0.50151437     0.82400
N211        N  0.68384485  0.35674184  0.51972041    -0.78300
C212        C  0.70083647  0.33833302  0.51573975     0.82500
N213        N  0.70173126  0.32685039  0.49294687    -0.80000
C214        C  0.00331251  0.97645352  0.48432215     0.02000
C215        C  0.02085240  0.97519548  0.50511319     0.02000
C216        C  0.02033734  0.99428716  0.52456326     0.02000
C217        C  0.00274949  0.01481254  0.52279652     0.02000
C218        C  0.98622511  0.01678478  0.50130538     0.02000
C219        C  0.98610123  0.99739755  0.48225641     0.02000
C220        C  0.98307680  0.16522572  0.69887380     0.80000
N221        N  0.97886077  0.14757028  0.68116335    -0.78300
C222        C  0.99751280  0.13960406  0.66585740     0.82400
N223        N  0.02053305  0.14946407  0.66808619    -0.78300
C224        C  0.02521271  0.16722557  0.68545337     0.82500
N225        N  0.00632722  0.17535979  0.70084635    -0.80000
C226        C  0.18151931  0.01041961  0.68698847     0.80000
N227        N  0.16223131  0.01132127  0.67059713    -0.78300
C228        C  0.14633450  0.99199251  0.66793444     0.82400
N229        N  0.14957576  0.97150468  0.68230946    -0.78300
C230        C  0.16867984  0.96985990  0.69869429     0.82500
N231        N  0.18488928  0.98927286  0.70077924    -0.80000
C232        C  0.17169085  0.80374026  0.48776536     0.80000
N233        N  0.17680358  0.79132864  0.50955651    -0.78300
C234        C  0.16462467  0.79760730  0.53137075     0.82400
N235        N  0.14746452  0.81627692  0.53109179    -0.78300
C236        C  0.14229177  0.82850231  0.50942722     0.82500
N237        N  0.15448713  0.82223799  0.48797849    -0.80000
C238        C  0.82990526  0.18114113  0.51548012     0.80000
N239        N  0.82230599  0.18764859  0.49199310    -0.78300
C240        C  0.83722926  0.18275619  0.47163313     0.82400
N241        N  0.85929668  0.17105356  0.47543321    -0.78300
C242        C  0.86714661  0.16410392  0.49848332     0.82500
N243        N  0.85210339  0.16935998  0.51844978    -0.80000
C244        C  0.82753641  0.98600901  0.31769540     0.80000
N245        N  0.84534442  0.98565914  0.33562763    -0.78300
C246        C  0.85763207  0.00672981  0.34175446     0.82400
N247        N  0.85196803  0.02834730  0.32988895    -0.78300
C248        C  0.83411181  0.02887273  0.31189132     0.82500
N249        N  0.82197410  0.00762912  0.30579532    -0.80000
C250        C  0.97207522  0.80680333  0.33288924     0.80000
N251        N  0.99139061  0.80134128  0.31684261    -0.78300
C252        C  0.01349789  0.81390670  0.31834531     0.82400
N253        N  0.01577145  0.83206781  0.33608532    -0.78300
C254        C  0.99667239  0.83779277  0.35210913     0.82500
N255        N  0.97500640  0.82498795  0.35031605    -0.80000
O256        O  0.24942352  0.20210428  0.70743114    -0.80400
O257        O  0.25333835  0.28416949  0.70377632    -0.80400
O258        O  0.19663584  0.22668072  0.73466535    -0.80400
O259        O  0.30607159  0.26270603  0.73233671    -0.80300
O260        O  0.21409097  0.24725832  0.70338105    -0.80500
O261        O  0.28979206  0.23933358  0.70274143    -0.80400
O262        O  0.27402420  0.29960856  0.73502959    -0.80400
O263        O  0.22866649  0.19012062  0.74053961    -0.80400
C264        C  0.23629522  0.18573468  0.71842982     1.09300
C265        C  0.26640591  0.30165123  0.71253630     1.09200
C266        C  0.19644107  0.23369947  0.71175374     1.09300
C267        C  0.30719190  0.25376498  0.71035305     1.09200
O268        O  0.30644505  0.22142512  0.74880924    -0.80400
O269        O  0.19740584  0.26822838  0.74999815    -0.80500
O270        O  0.24807384  0.21011624  0.78643988    -0.80400
O271        O  0.25620434  0.28221870  0.78402929    -0.80400
O272        O  0.23404942  0.29945010  0.75417142    -0.80400
O273        O  0.26979205  0.19045086  0.75719334    -0.80400
O274        O  0.29338496  0.24318926  0.78088352    -0.80300
O275        O  0.21157207  0.24931386  0.78281056    -0.80400
Co276      Co  0.27589508  0.21629635  0.72930162     1.51500
Co277      Co  0.22758517  0.27186636  0.72821544     1.51700
Co278      Co  0.22412287  0.22175185  0.76049062     1.51600
Co279      Co  0.27941050  0.26928938  0.75778897     1.51500
O280        O  0.25186130  0.24470027  0.74372958    -1.42300
C281        C  0.30962791  0.22887499  0.77085220     1.09200
C282        C  0.19509827  0.26309957  0.77297462     1.09300
C283        C  0.26140251  0.19162610  0.77976895     1.09300
C284        C  0.24265916  0.30003045  0.77651379     1.09200
O285        O  0.75979440  0.19276707  0.25907743    -0.80400
O286        O  0.77527817  0.30038270  0.24357153    -0.80400
O287        O  0.77200984  0.23302830  0.18684634    -0.80400
O288        O  0.78819953  0.24496071  0.28017115    -0.80300
O289        O  0.78419579  0.26569736  0.20588390    -0.80500
O290        O  0.75853878  0.22392549  0.29775535    -0.80400
O291        O  0.78285914  0.29635185  0.28433306    -0.80400
O292        O  0.78403833  0.20820037  0.22971598    -0.80400
C293        C  0.77989851  0.19202803  0.24610557     1.09300
C294        C  0.78636598  0.30795069  0.26370227     1.09200
C295        C  0.78366949  0.25312161  0.18583219     1.09300
C296        C  0.78113313  0.22989703  0.29710590     1.09200
O297        O  0.71066988  0.24247643  0.28820709    -0.80400
O298        O  0.73292694  0.26763189  0.18954637    -0.80500
O299        O  0.73593224  0.19249691  0.21866334    -0.80400
O300        O  0.73604355  0.29728657  0.26904826    -0.80400
O301        O  0.72239373  0.29786384  0.23121451    -0.80400
O302        O  0.70833655  0.20495203  0.24654471    -0.80400
O303        O  0.74179164  0.26553449  0.30269369    -0.80300
O304        O  0.72445084  0.22906281  0.19737260    -0.80400
Co305      Co  0.73444885  0.21918513  0.27019975     1.51500
Co306      Co  0.75244449  0.27943705  0.22028816     1.51700
Co307      Co  0.75387084  0.22468643  0.21839332     1.51600
Co308      Co  0.76229738  0.27042916  0.27074279     1.51500
O309        O  0.74540738  0.24861764  0.24588423    -1.42300
C310        C  0.71977654  0.25665768  0.30525581     1.09200
C311        C  0.72341001  0.24716705  0.18267061     1.09300
C312        C  0.71548836  0.18900011  0.23001832     1.09300
C313        C  0.72197014  0.30689249  0.25296966     1.09200
O314        O  0.30033601  0.70956921  0.25239512    -0.80400
O315        O  0.19360596  0.72085177  0.28424633    -0.80400
O316        O  0.26821750  0.73208294  0.30845724    -0.80400
O317        O  0.22988745  0.72992883  0.20368650    -0.80300
O318        O  0.24280573  0.70656202  0.28858342    -0.80500
O319        O  0.25942918  0.70481002  0.21671217    -0.80400
O320        O  0.20551450  0.71678019  0.24535570    -0.80400
O321        O  0.30885397  0.73984370  0.27870262    -0.80400
C322        C  0.31483511  0.71941748  0.26858814     1.09300
C323        C  0.18893152  0.71263718  0.26256811     1.09200
C324        C  0.25699562  0.71121856  0.30688376     1.09300
C325        C  0.24267299  0.71017050  0.20082058     1.09200
O326        O  0.26903646  0.75590199  0.20183603    -0.80400
O327        O  0.22625184  0.75303136  0.30771005    -0.80500
O328        O  0.29173340  0.78577844  0.26114011    -0.80400
O329        O  0.19146626  0.76028791  0.22563531    -0.80400
O330        O  0.20189255  0.76580812  0.26463991    -0.80400
O331        O  0.30740800  0.75819551  0.23458680    -0.80400
O332        O  0.23977342  0.77949318  0.21940961    -0.80300
O333        O  0.25089047  0.78269492  0.29590370    -0.80400
Co334      Co  0.28166683  0.73227306  0.22855167     1.51500
Co335      Co  0.22465628  0.73524914  0.27439186     1.51700
Co336      Co  0.27770758  0.75956299  0.28385169     1.51600
Co337      Co  0.22452037  0.74969582  0.23547010     1.51500
O338        O  0.25649899  0.74454950  0.25548947    -1.42300
C339        C  0.25541147  0.77540812  0.20178006     1.09200
C340        C  0.23594149  0.77396955  0.31204472     1.09300
C341        C  0.30838804  0.77926010  0.24515907     1.09300
C342        C  0.18496040  0.76747273  0.24748150     1.09200
C343        C  0.03555966  0.80764993  0.30144005     0.01100
C344        C  0.04380345  0.78279179  0.29829079     0.03900
C345        C  0.06658227  0.77737374  0.28572929    -0.12100
C346        C  0.08127246  0.79642072  0.27506332     0.23200
C347        C  0.07214216  0.82099996  0.27637797    -0.12700
C348        C  0.04984617  0.82667041  0.28980490     0.04600
C349        C  0.10791198  0.79105196  0.26683589     0.27000
C350        C  0.12616778  0.78823873  0.28531639    -0.13400
C351        C  0.15016498  0.77906310  0.27925133     0.05100
C352        C  0.15846879  0.77671741  0.25377563    -0.09400
C353        C  0.14027735  0.78160555  0.23488636     0.06000
C354        C  0.11509621  0.78756241  0.24148851    -0.13700
Br355      Br  0.09096660  0.84708359  0.26050257    -0.05800
Br356      Br  0.02525517  0.75582271  0.31292238    -0.00200
Br357      Br  0.16866742  0.76609596  0.30708704     0.00300
Br358      Br  0.09018097  0.79086286  0.21582326    -0.04100
Br359      Br  0.03919403  0.86085385  0.29212448     0.00400
Br360      Br  0.07874652  0.74372521  0.28480864    -0.03400
Br361      Br  0.11795332  0.79724853  0.31955706    -0.04300
Br362      Br  0.14889375  0.78022505  0.19965856    -0.00300
C363        C  0.82816949  0.05245898  0.29890882     0.01100
C364        C  0.80486684  0.06409581  0.30256201     0.03900
C365        C  0.80027792  0.08768359  0.29213129    -0.12100
C366        C  0.81848953  0.09924702  0.27698422     0.23200
C367        C  0.84104736  0.08681302  0.27187250    -0.12700
C368        C  0.84600885  0.06364656  0.28306958     0.04600
C369        C  0.81315137  0.12374485  0.26528734     0.27000
C370        C  0.79791339  0.12501134  0.24394114    -0.13400
C371        C  0.78945253  0.14814377  0.23533431     0.05100
C372        C  0.79614458  0.16995209  0.24802617    -0.09400
C373        C  0.81543255  0.16898176  0.26561654     0.06000
C374        C  0.82320692  0.14585535  0.27515748    -0.13700
Br375      Br  0.86463242  0.10123371  0.24873589    -0.05800
Br376      Br  0.77906671  0.04769376  0.32159006    -0.00200
Br377      Br  0.77052224  0.15022818  0.20499268     0.00300
Br378      Br  0.84679999  0.14464770  0.30212487    -0.04100
Br379      Br  0.87658410  0.04639527  0.27537414     0.00400
Br380      Br  0.76902261  0.10422324  0.29870755    -0.03400
Br381      Br  0.78857072  0.09511600  0.22663691    -0.04300
Br382      Br  0.83301308  0.19883331  0.27391728    -0.00300
C383        C  0.82980790  0.18904305  0.44517801     0.01100
C384        C  0.83681094  0.17288823  0.42516428     0.03900
C385        C  0.83345587  0.18003354  0.39994858    -0.12100
C386        C  0.82130789  0.20249766  0.39402333     0.23200
C387        C  0.81323883  0.21816831  0.41376859    -0.12700
C388        C  0.81748420  0.21159789  0.43913324     0.04600
C389        C  0.81434396  0.20802940  0.36732603     0.27000
C390        C  0.82538568  0.22761467  0.35359839    -0.13400
C391        C  0.81569215  0.23481816  0.32994113     0.05100
C392        C  0.79687780  0.22049363  0.31845722    -0.09400
C393        C  0.78961155  0.19812666  0.33054389     0.06000
C394        C  0.79627570  0.19338747  0.35552346    -0.13700
Br395      Br  0.79603046  0.24872780  0.40596295    -0.05800
Br396      Br  0.84863253  0.13950596  0.43163402    -0.00200
Br397      Br  0.82764646  0.26472906  0.31436385     0.00300
Br398      Br  0.77887674  0.16788756  0.37415670    -0.04100
Br399      Br  0.80607422  0.23394014  0.46513800     0.00400
Br400      Br  0.84542404  0.15871627  0.37322286    -0.03400
Br401      Br  0.85378240  0.24437870  0.36732921    -0.04300
Br402      Br  0.77057923  0.17319102  0.31333721    -0.00300
C403        C  0.23218078  0.78558741  0.33751982     0.01100
C404        C  0.24579705  0.77647459  0.35816770     0.03900
C405        C  0.23707422  0.77980181  0.38299233    -0.12100
C406        C  0.21566606  0.79425457  0.38780806     0.23200
C407        C  0.20423407  0.80664301  0.36745497    -0.12700
C408        C  0.21257428  0.80243337  0.34244002     0.04600
C409        C  0.20510783  0.79590943  0.41404724     0.27000
C410        C  0.18403131  0.78175129  0.42077584    -0.13400
C411        C  0.17361438  0.78354510  0.44517851     0.05100
C412        C  0.18496674  0.79834491  0.46366611    -0.09400
C413        C  0.20677484  0.81148352  0.45737676     0.06000
C414        C  0.21643413  0.81080751  0.43258254    -0.13700
Br415      Br  0.17691651  0.82904874  0.37392928    -0.05800
Br416      Br  0.27806724  0.76216383  0.35289423    -0.00200
Br417      Br  0.14321678  0.76635343  0.45315986     0.00300
Br418      Br  0.24461698  0.83109131  0.42378007    -0.04100
Br419      Br  0.19889087  0.82135517  0.31516143     0.00400
Br420      Br  0.25394005  0.76353849  0.41034552    -0.03400
Br421      Br  0.16948303  0.75977007  0.39641979    -0.04300
Br422      Br  0.22304606  0.83085297  0.48284411    -0.00300
C423        C  0.19859097  0.03255763  0.68882145     0.01100
C424        C  0.20322182  0.04732845  0.66721599     0.03900
C425        C  0.21286916  0.07161322  0.66951447    -0.12100
C426        C  0.21987732  0.08089498  0.69311837     0.23200
C427        C  0.21938113  0.06461163  0.71385126    -0.12700
C428        C  0.20849230  0.04076102  0.71198702     0.04600
C429        C  0.22435184  0.10829916  0.69695788     0.27000
C430        C  0.24807185  0.11912691  0.69390588    -0.13400
C431        C  0.25184543  0.14472371  0.69934499     0.05100
C432        C  0.23190183  0.15994204  0.70802043    -0.09400
C433        C  0.20824683  0.14868431  0.71107627     0.06000
C434        C  0.20443285  0.12345587  0.70499037    -0.13700
Br435      Br  0.23325713  0.07549009  0.74502432    -0.05800
Br436      Br  0.19800480  0.03387159  0.63405201    -0.00200
Br437      Br  0.28505236  0.15786514  0.69769885     0.00300
Br438      Br  0.17164037  0.10917558  0.70815982    -0.04100
Br439      Br  0.20667264  0.02034405  0.74169932     0.00400
Br440      Br  0.21560402  0.09262528  0.64042107    -0.03400
Br441      Br  0.27554333  0.09844882  0.68322036    -0.04300
Br442      Br  0.18076554  0.16717542  0.72497425    -0.00300
C443        C  0.17307486  0.22845238  0.69707245     0.01100
C444        C  0.15055851  0.23973991  0.70494128     0.03900
C445        C  0.12736582  0.22884277  0.70000684    -0.12100
C446        C  0.12593921  0.20705747  0.68564838     0.23200
C447        C  0.14795919  0.19797523  0.67398474    -0.12700
C448        C  0.17147260  0.20872248  0.67965342     0.04600
C449        C  0.10110994  0.19435053  0.68367140     0.27000
C450        C  0.09276424  0.17885174  0.70341739    -0.13400
C451        C  0.06778721  0.17074421  0.70457842     0.05100
C452        C  0.05069137  0.17807751  0.68607607    -0.09400
C453        C  0.05899948  0.19326230  0.66613839     0.06000
C454        C  0.08401021  0.20134277  0.66492386    -0.13700
Br455      Br  0.14589072  0.17078119  0.65068395    -0.05800
Br456      Br  0.15088497  0.27173712  0.72006924    -0.00200
Br457      Br  0.05693179  0.14937853  0.73148514     0.00300
Br458      Br  0.09468417  0.22276200  0.63803750    -0.04100
Br459      Br  0.20127937  0.19697665  0.66331283     0.00400
Br460      Br  0.09721419  0.24357213  0.71344560    -0.03400
Br461      Br  0.11541231  0.16927962  0.72948237    -0.04300
Br462      Br  0.03560456  0.20379753  0.64097826    -0.00300
C463        C  0.00301492  0.95534429  0.46463549     0.01100
C464        C  0.00869796  0.95960655  0.43868885     0.03900
C465        C  0.00962342  0.93981677  0.42121264    -0.12100
C466        C  0.00414616  0.91544740  0.42863040     0.23200
C467        C  0.99792160  0.91081532  0.45377293    -0.12700
C468        C  0.99752408  0.93027904  0.47161248     0.04600
C469        C  0.00252654  0.89519807  0.40937909     0.27000
C470        C  0.98140397  0.89377873  0.39407366    -0.13400
C471        C  0.97982057  0.87561583  0.37512460     0.05100
C472        C  0.99916995  0.85794938  0.37146347    -0.09400
C473        C  0.02036076  0.85930103  0.38710756     0.06000
C474        C  0.02190638  0.87774497  0.40598674    -0.13700
Br475      Br  0.98864748  0.87746883  0.46332940    -0.05800
Br476      Br  0.01720888  0.99176096  0.42573318    -0.00200
Br477      Br  0.95144592  0.87667170  0.35343813     0.00300
Br478      Br  0.05031095  0.87878079  0.42774420    -0.04100
Br479      Br  0.98680209  0.92141808  0.50484042     0.00400
Br480      Br  0.01848175  0.94579074  0.38646209    -0.03400
Br481      Br  0.95430619  0.91686818  0.39942212    -0.04300
Br482      Br  0.04708812  0.83545417  0.38369439    -0.00300
C483        C  0.87656737  0.00601928  0.36175161     0.01100
C484        C  0.90098181  0.99786874  0.35639616     0.03900
C485        C  0.91857920  0.99581123  0.37582444    -0.12100
C486        C  0.91180573  0.00176625  0.40077080     0.23200
C487        C  0.88723740  0.00965703  0.40606535    -0.12700
C488        C  0.86977840  0.01200623  0.38659032     0.04600
C489        C  0.93072098  0.00052537  0.42122230     0.27000
C490        C  0.93176803  0.98007566  0.43742577    -0.13400
C491        C  0.94895624  0.97946875  0.45739637     0.05100
C492        C  0.96719638  0.99847702  0.46049350    -0.09400
C493        C  0.96610134  0.01877109  0.44309485     0.06000
C494        C  0.94737797  0.02014438  0.42462835    -0.13700
Br495      Br  0.87730596  0.01673896  0.44009396    -0.05800
Br496      Br  0.91023170  0.98970362  0.32233521    -0.00200
Br497      Br  0.94273284  0.95516637  0.48292861     0.00300
Br498      Br  0.94388593  0.04938050  0.40380249    -0.04100
Br499      Br  0.83633855  0.02318813  0.39383612     0.00400
Br500      Br  0.95192479  0.98450752  0.36842532    -0.03400
Br501      Br  0.90815985  0.95349101  0.43297910    -0.04300
Br502      Br  0.99084464  0.04427732  0.44133724    -0.00300
C503        C  0.88990864  0.14770162  0.50097338     0.01100
C504        C  0.90655344  0.14469940  0.48019734     0.03900
C505        C  0.92290434  0.12419079  0.47896585    -0.12100
C506        C  0.92511975  0.10798944  0.49948240     0.23200
C507        C  0.91099553  0.11252698  0.52139238    -0.12700
C508        C  0.89372958  0.13233916  0.52240304     0.04600
C509        C  0.94085190  0.08511389  0.49762195     0.27000
C510        C  0.92935339  0.06202976  0.49490363    -0.13400
C511        C  0.94320538  0.03983479  0.49717684     0.05100
C512        C  0.96985537  0.04027114  0.49872795    -0.09400
C513        C  0.98122303  0.06420175  0.49787519     0.06000
C514        C  0.96686349  0.08619289  0.49903684    -0.13700
Br515      Br  0.91380213  0.08988567  0.54939474    -0.05800
Br516      Br  0.90916203  0.16935589  0.45393576    -0.00200
Br517      Br  0.92340481  0.01048049  0.50019307     0.00300
Br518      Br  0.98287114  0.11809061  0.50197590    -0.04100
Br519      Br  0.87637211  0.13756639  0.55393155     0.00400
Br520      Br  0.94059026  0.11685246  0.44811670    -0.03400
Br521      Br  0.89399021  0.06138991  0.48810653    -0.04300
Br522      Br  0.01611019  0.06804258  0.49079550    -0.00300
C523        C  0.00016045  0.03391684  0.54431587     0.01100
C524        C  0.97755988  0.03533786  0.55861239     0.03900
C525        C  0.97484166  0.05207625  0.57892757    -0.12100
C526        C  0.99380656  0.06883394  0.58468275     0.23200
C527        C  0.01583963  0.06850159  0.57050046    -0.12700
C528        C  0.01952296  0.05083277  0.55117638     0.04600
C529        C  0.99147624  0.08600345  0.60662142     0.27000
C530        C  0.98079633  0.10979953  0.60385153    -0.13400
C531        C  0.98075977  0.12669337  0.62408447     0.05100
C532        C  0.99307570  0.12053077  0.64650953    -0.09400
C533        C  0.00331042  0.09665417  0.64947372     0.06000
C534        C  0.00179321  0.07920395  0.62989125    -0.13700
Br535      Br  0.04114905  0.09285739  0.57808334    -0.05800
Br536      Br  0.95101917  0.01204310  0.55372105    -0.00200
Br537      Br  0.96458363  0.15853552  0.62079986     0.00300
Br538      Br  0.01424099  0.04608597  0.63476645    -0.04100
Br539      Br  0.05177741  0.05155738  0.53551214     0.00400
Br540      Br  0.94568717  0.05122261  0.60033523    -0.03400
Br541      Br  0.96787480  0.11986743  0.57185573    -0.04300
Br542      Br  0.01975936  0.08810549  0.68036983    -0.00300
C543        C  0.12743809  0.99207837  0.64755153     0.01100
C544        C  0.11312023  0.01360965  0.64255400     0.03900
C545        C  0.09643908  0.01398375  0.62223420    -0.12100
C546        C  0.09267016  0.99248385  0.60767701     0.23200
C547        C  0.10631304  0.97080419  0.61304834    -0.12700
C548        C  0.12425398  0.97080079  0.63219440     0.04600
C549        C  0.07435728  0.99262221  0.58669236     0.27000
C550        C  0.04893329  0.98983589  0.59175329    -0.13400
C551        C  0.03134803  0.99071454  0.57215576     0.05100
C552        C  0.03903360  0.99330249  0.54643391    -0.09400
C553        C  0.06519978  0.99544697  0.54187994     0.06000
C554        C  0.08244454  0.99539396  0.56180040    -0.13700
Br555      Br  0.10033268  0.94100773  0.59396187    -0.05800
Br556      Br  0.11526744  0.04243943  0.66401397    -0.00200
Br557      Br  0.99735866  0.98571908  0.58225693     0.00300
Br558      Br  0.11758364  0.00014809  0.55540149    -0.04100
Br559      Br  0.14570774  0.94206518  0.63538753     0.00400
Br560      Br  0.07907381  0.04418164  0.61386371    -0.03400
Br561      Br  0.03861908  0.98356557  0.62605689    -0.04300
Br562      Br  0.07840187  0.00274507  0.50917682    -0.00300
C563        C  0.03992603  0.95354521  0.50627113     0.01100
C564        C  0.04093322  0.93656445  0.52698424     0.03900
C565        C  0.05826822  0.91677266  0.52747678    -0.12100
C566        C  0.07345812  0.91170114  0.50664800     0.23200
C567        C  0.07270342  0.92766684  0.48590492    -0.12700
C568        C  0.05720442  0.94895356  0.48615231     0.04600
C569        C  0.09106151  0.89012980  0.50714251     0.27000
C570        C  0.11658820  0.89410961  0.51150645    -0.13400
C571        C  0.13333681  0.87393750  0.51167353     0.05100
C572        C  0.12450839  0.84950297  0.50924225    -0.09400
C573        C  0.09893413  0.84533537  0.50565973     0.06000
C574        C  0.08230142  0.86561195  0.50409539    -0.13700
Br575      Br  0.09372656  0.92036786  0.45716314    -0.05800
Br576      Br  0.01740605  0.93671604  0.55413990    -0.00200
Br577      Br  0.16854973  0.87970125  0.51477774     0.00300
Br578      Br  0.04751842  0.85978746  0.49794402    -0.04100
Br579      Br  0.06298833  0.97232778  0.45959184     0.00400
Br580      Br  0.06153267  0.89601377  0.55695867    -0.03400
Br581      Br  0.12844082  0.92717902  0.51818151    -0.04300
Br582      Br  0.08685878  0.81179184  0.50277907    -0.00300
C583        C  0.68716365  0.32107760  0.44937132     0.01100
C584        C  0.70848989  0.32423691  0.43416131     0.03900
C585        C  0.71093195  0.31141215  0.41111756    -0.12100
C586        C  0.69160186  0.29601307  0.40240314     0.23200
C587        C  0.66995786  0.29332083  0.41736021    -0.12700
C588        C  0.66775702  0.30576647  0.44071846     0.04600
C589        C  0.69437486  0.28271742  0.37764193     0.27000
C590        C  0.68391888  0.29251968  0.35548398    -0.13400
C591        C  0.68883236  0.28122684  0.33186185     0.05100
C592        C  0.70641756  0.26179351  0.32974902    -0.09400
C593        C  0.71501410  0.25073927  0.35222060     0.06000
C594        C  0.70855941  0.26073636  0.37596092    -0.13700
Br595      Br  0.64361197  0.27200782  0.40608736    -0.05800
Br596      Br  0.73369697  0.34751578  0.44424336    -0.00200
Br597      Br  0.67142081  0.29218850  0.30245809     0.00300
Br598      Br  0.71966391  0.24476227  0.40637003    -0.04100
Br599      Br  0.63835314  0.30142725  0.46117930     0.00400
Br600      Br  0.74107223  0.31467267  0.39158224    -0.03400
Br601      Br  0.66450158  0.32259173  0.35737846    -0.04300
Br602      Br  0.73508823  0.22132499  0.35087154    -0.00300
C603        C  0.32515731  0.44772492  0.68605900     0.01100
C604        C  0.30638934  0.44213128  0.66845514     0.03900
C605        C  0.29470557  0.41843825  0.66834202    -0.12100
C606        C  0.30196302  0.39973578  0.68551758     0.23200
C607        C  0.32093730  0.40536039  0.70282672    -0.12700
C608        C  0.33264388  0.42890118  0.70282604     0.04600
C609        C  0.28886307  0.37481905  0.68701153     0.27000
C610        C  0.26797362  0.37194877  0.70281210    -0.13400
C611        C  0.25855286  0.34802989  0.70824501     0.05100
C612        C  0.27028493  0.32627697  0.69898043    -0.09400
C613        C  0.28818213  0.32946294  0.67965843     0.06000
C614        C  0.29784266  0.35351618  0.67412472    -0.13700
Br615      Br  0.33017767  0.38093861  0.72747123    -0.05800
Br616      Br  0.29716880  0.46683950  0.64405724    -0.00200
Br617      Br  0.22739960  0.34541979  0.72538947     0.00300
Br618      Br  0.32354646  0.35740770  0.64915775    -0.04100
Br619      Br  0.35937763  0.43537803  0.72575120     0.00400
Br620      Br  0.26812256  0.41184810  0.64524568    -0.03400
Br621      Br  0.25235373  0.40099861  0.71722471    -0.04300
Br622      Br  0.29845092  0.30118493  0.66008265    -0.00300
C623        C  0.46609696  0.69172111  0.32141789     0.01100
C624        C  0.45130690  0.67092786  0.31469230     0.03900
C625        C  0.42757614  0.67411270  0.30359542    -0.12100
C626        C  0.41823683  0.69798350  0.29815035     0.23200
C627        C  0.43342758  0.71869582  0.30341680    -0.12700
C628        C  0.45694063  0.71569325  0.31520500     0.04600
C629        C  0.39145331  0.70138802  0.28989642     0.27000
C630        C  0.38444251  0.70115938  0.26433180    -0.13400
C631        C  0.35917367  0.70512234  0.25718700     0.05100
C632        C  0.34035847  0.70938607  0.27553945    -0.09400
C633        C  0.34786305  0.70984441  0.30108152     0.06000
C634        C  0.37278229  0.70525506  0.30813743    -0.13700
Br635      Br  0.42135366  0.75142899  0.29518309    -0.05800
Br636      Br  0.46346925  0.63755832  0.31994686    -0.00200
Br637      Br  0.35109960  0.70783284  0.22213377     0.00300
Br638      Br  0.38170458  0.70499088  0.34322370    -0.04100
Br639      Br  0.47532304  0.74484999  0.32467049     0.00400
Br640      Br  0.40709028  0.64565433  0.29664781    -0.03400
Br641      Br  0.40987266  0.69646977  0.23911924    -0.04300
Br642      Br  0.32461544  0.71881211  0.32703593    -0.00300
C643        C  0.66356958  0.45259170  0.29112892     0.01100
C644        C  0.68942185  0.44893515  0.28715422     0.03900
C645        C  0.69839835  0.42592020  0.27804494    -0.12100
C646        C  0.68190682  0.40609606  0.27360678     0.23200
C647        C  0.65616969  0.41000780  0.27665408    -0.12700
C648        C  0.64698864  0.43330519  0.28443661     0.04600
C649        C  0.69151257  0.38049020  0.26831862     0.27000
C650        C  0.68878519  0.36953066  0.24451571    -0.13400
C651        C  0.69536566  0.34437539  0.24053968     0.05100
C652        C  0.70811189  0.33069993  0.25936568    -0.09400
C653        C  0.71060262  0.34213075  0.28351522     0.06000
C654        C  0.70140759  0.36631319  0.28798891    -0.13700
Br655      Br  0.63350298  0.38267181  0.27213001    -0.05800
Br656      Br  0.71317821  0.47427796  0.29597007    -0.00200
Br657      Br  0.68464335  0.32890126  0.20983705     0.00300
Br658      Br  0.70199874  0.38030595  0.32149954    -0.04100
Br659      Br  0.61138493  0.43850721  0.28521936     0.00400
Br660      Br  0.73357732  0.42097986  0.27318486    -0.03400
Br661      Br  0.67644454  0.38940868  0.21713110    -0.04300
Br662      Br  0.72620029  0.32592046  0.31170857    -0.00300
C663        C  0.29895588  0.67055495  0.45237287     0.01100
C664        C  0.28217301  0.65261409  0.44336058     0.03900
C665        C  0.27385020  0.65356333  0.41829076    -0.12100
C666        C  0.28221262  0.67258183  0.40216359     0.23200
C667        C  0.29911962  0.69032829  0.41129974    -0.12700
C668        C  0.30783440  0.68902253  0.43605010     0.04600
C669        C  0.27174378  0.67578333  0.37649033     0.27000
C670        C  0.28508788  0.66814371  0.35485377    -0.13400
C671        C  0.27794093  0.67685787  0.33091893     0.05100
C672        C  0.25832407  0.69411900  0.32878631    -0.09400
C673        C  0.24286691  0.69851121  0.34991092     0.06000
C674        C  0.24960609  0.68944942  0.37366203    -0.13700
Br675      Br  0.31044500  0.71672765  0.39003655    -0.05800
Br676      Br  0.27119618  0.62640014  0.46535644    -0.00200
Br677      Br  0.29475242  0.66531531  0.30105095     0.00300
Br678      Br  0.22940388  0.69717124  0.40277355    -0.04100
Br679      Br  0.33352322  0.71140665  0.44700215     0.00400
Br680      Br  0.25125519  0.62879230  0.40593842    -0.03400
Br681      Br  0.31391217  0.64710230  0.35821062    -0.04300
Br682      Br  0.21228049  0.71675453  0.34677521    -0.00300
C683        C  0.45968323  0.28700522  0.67266236     0.01100
C684        C  0.45014779  0.28391003  0.69724679     0.03900
C685        C  0.42612163  0.27381809  0.70110047    -0.12100
C686        C  0.41088492  0.26751900  0.68046765     0.23200
C687        C  0.42102005  0.26911222  0.65606046    -0.12700
C688        C  0.44540367  0.27816590  0.65224137     0.04600
C689        C  0.38330591  0.26394222  0.68428244     0.27000
C690        C  0.37142270  0.24075230  0.68133328    -0.13400
C691        C  0.34539688  0.23836587  0.68585752     0.05100
C692        C  0.33158891  0.25822444  0.69672925    -0.09400
C693        C  0.34423691  0.28125608  0.70015437     0.06000
C694        C  0.36884988  0.28448429  0.69165932    -0.13700
Br695      Br  0.40056321  0.26132337  0.62753432    -0.05800
Br696      Br  0.46848517  0.29610040  0.72565878    -0.00200
Br697      Br  0.32953205  0.20722138  0.67875058     0.00300
Br698      Br  0.38327261  0.31736471  0.69077917    -0.04100
Br699      Br  0.45897386  0.27885120  0.61858162     0.00400
Br700      Br  0.41298673  0.27095626  0.73476060    -0.03400
Br701      Br  0.39109250  0.21191533  0.67277224    -0.04300
Br702      Br  0.33011103  0.30850351  0.71908172    -0.00300
C703        C  0.46328989  0.54068038  0.50724512     0.01100
C704        C  0.46273359  0.56493298  0.51785950     0.03900
C705        C  0.44410567  0.58208809  0.51127215    -0.12100
C706        C  0.42363842  0.57446728  0.49721131     0.23200
C707        C  0.42306641  0.55033019  0.48739306    -0.12700
C708        C  0.44332545  0.53400345  0.49116250     0.04600
C709        C  0.40163317  0.59115005  0.49576903     0.27000
C710        C  0.38435612  0.59149147  0.51575705    -0.13400
C711        C  0.36503664  0.60916548  0.51627304     0.05100
C712        C  0.36390867  0.62773135  0.49767802    -0.09400
C713        C  0.38115443  0.62719018  0.47744798     0.06000
C714        C  0.39929094  0.60830742  0.47605157    -0.13700
Br715      Br  0.39393633  0.53965034  0.46946971    -0.05800
Br716      Br  0.48445890  0.57535421  0.54382861    -0.00200
Br717      Br  0.33920135  0.60659984  0.54140962     0.00300
Br718      Br  0.42055632  0.60549146  0.44694077    -0.04100
Br719      Br  0.44223522  0.50210182  0.47488013     0.00400
Br720      Br  0.44601324  0.61639205  0.52202358    -0.03400
Br721      Br  0.38737305  0.56761041  0.54249856    -0.04300
Br722      Br  0.38113685  0.65297344  0.45222187    -0.00300
C723        C  0.47128116  0.50849600  0.55434768     0.01100
C724        C  0.44671974  0.49967168  0.55848101     0.03900
C725        C  0.43665493  0.49843891  0.58281479    -0.12100
C726        C  0.44899462  0.50942290  0.60304809     0.23200
C727        C  0.47251423  0.52008659  0.59915943    -0.12700
C728        C  0.48399822  0.51884045  0.57521533     0.04600
C729        C  0.43497734  0.51181525  0.62713226     0.27000
C730        C  0.41557486  0.52934640  0.62843252    -0.13400
C731        C  0.39519146  0.52555891  0.64470976     0.05100
C732        C  0.39407850  0.50400131  0.65997408    -0.09400
C733        C  0.41508192  0.48799588  0.66062531     0.06000
C734        C  0.43577320  0.49243980  0.64474163    -0.13700
Br735      Br  0.48879215  0.53648585  0.62663023    -0.05800
Br736      Br  0.42401859  0.49254585  0.53215678    -0.00200
Br737      Br  0.36785539  0.54889843  0.64355243     0.00300
Br738      Br  0.46536884  0.47221398  0.64653038    -0.04100
Br739      Br  0.51685608  0.53262178  0.57133511     0.00400
Br740      Br  0.40514749  0.48186754  0.58866765    -0.03400
Br741      Br  0.41617337  0.55735790  0.60585655    -0.04300
Br742      Br  0.41571113  0.45978936  0.68277668    -0.00300
C743        C  0.50704057  0.54538125  0.47424494     0.01100
C744        C  0.49496081  0.54790863  0.45065517     0.03900
C745        C  0.49435436  0.57085515  0.43796957    -0.12100
C746        C  0.50873773  0.59083031  0.44625886     0.23200
C747        C  0.52202860  0.58845813  0.46874306    -0.12700
C748        C  0.52034867  0.56641807  0.48318728     0.04600
C749        C  0.51186572  0.61273620  0.42926264     0.27000
C750        C  0.52904252  0.61122472  0.40922752    -0.13400
C751        C  0.52849994  0.62880575  0.38965538     0.05100
C752        C  0.51080841  0.64833107  0.39000640    -0.09400
C753        C  0.49438649  0.65052304  0.41073610     0.06000
C754        C  0.49540287  0.63314599  0.43057042    -0.13700
Br755      Br  0.54280219  0.61553554  0.47933858    -0.05800
Br756      Br  0.48175492  0.52055873  0.43250303    -0.00200
Br757      Br  0.55094605  0.62480073  0.36147819     0.00300
Br758      Br  0.47517104  0.63780644  0.46011644    -0.04100
Br759      Br  0.53734572  0.56551533  0.51487430     0.00400
Br760      Br  0.47381246  0.57519219  0.40854027    -0.03400
Br761      Br  0.55342490  0.58484194  0.40884948    -0.04300
Br762      Br  0.47059601  0.67741792  0.41218882    -0.00300
C763        C  0.53563918  0.49658289  0.46607033     0.01100
C764        C  0.52540550  0.47962343  0.44848828     0.03900
C765        C  0.53797614  0.47409188  0.42584825    -0.12100
C766        C  0.56146455  0.48423468  0.42104437     0.23200
C767        C  0.57265724  0.49950954  0.43895258    -0.12700
C768        C  0.55946635  0.50669694  0.46064136     0.04600
C769        C  0.57378888  0.48147336  0.39625869     0.27000
C770        C  0.59246110  0.46347977  0.39273740    -0.13400
C771        C  0.60968384  0.46594482  0.37290488     0.05100
C772        C  0.60749488  0.48603453  0.35586814    -0.09400
C773        C  0.58657991  0.50196052  0.35758963     0.06000
C774        C  0.56996031  0.49983658  0.37794868    -0.13700
Br775      Br  0.60642555  0.51086230  0.43323431    -0.05800
Br776      Br  0.49323389  0.46490912  0.45385624    -0.00200
Br777      Br  0.63714365  0.44273973  0.37087342     0.00300
Br778      Br  0.54220165  0.52245299  0.38143676    -0.04100
Br779      Br  0.57463857  0.53189449  0.48034430     0.00400
Br780      Br  0.52304724  0.45301490  0.40091511    -0.03400
Br781      Br  0.59458093  0.43593260  0.41564364    -0.04300
Br782      Br  0.58000987  0.52620914  0.33181968    -0.00300
C783        C  0.54405533  0.46622772  0.51178093     0.01100
C784        C  0.54379010  0.44095926  0.50380148     0.03900
C785        C  0.56567782  0.42638287  0.50396048    -0.12100
C786        C  0.58796784  0.43596670  0.51338359     0.23200
C787        C  0.58830747  0.46032803  0.52278855    -0.12700
C788        C  0.56674128  0.47544848  0.52174756     0.04600
C789        C  0.61089681  0.42009704  0.51289368     0.27000
C790        C  0.61444377  0.40144182  0.53105278    -0.13400
C791        C  0.63397679  0.38397117  0.52830214     0.05100
C792        C  0.64898985  0.38384974  0.50626504    -0.09400
C793        C  0.64597911  0.40332805  0.48869509     0.06000
C794        C  0.62773524  0.42186858  0.49264394    -0.13700
Br795      Br  0.61858404  0.47274244  0.53731295    -0.05800
Br796      Br  0.51429146  0.42430424  0.49356235    -0.00200
Br797      Br  0.63919672  0.35996600  0.55465119     0.00300
Br798      Br  0.62601077  0.45021323  0.47071321    -0.04100
Br799      Br  0.56859544  0.50833835  0.53588059     0.00400
Br800      Br  0.56549866  0.39280085  0.49086567    -0.03400
Br801      Br  0.59185581  0.39952114  0.55931575    -0.04300
Br802      Br  0.66706572  0.40529398  0.45929643    -0.00300
C803        C  0.49830102  0.46123566  0.54518619     0.01100
C804        C  0.51315633  0.45560704  0.56647297     0.03900
C805        C  0.50946574  0.43366763  0.58031357    -0.12100
C806        C  0.49059449  0.41704111  0.57383901     0.23200
C807        C  0.47503905  0.42253678  0.55352597    -0.12700
C808        C  0.47899053  0.44423736  0.53911369     0.04600
C809        C  0.48823239  0.39364250  0.58856472     0.27000
C810        C  0.50539153  0.37421300  0.58431293    -0.13400
C811        C  0.50900372  0.35574535  0.60267153     0.05100
C812        C  0.49488638  0.35616818  0.62511576    -0.09400
C813        C  0.47616812  0.37445195  0.62831109     0.06000
C814        C  0.47278974  0.39301730  0.60999940    -0.13700
Br815      Br  0.44875071  0.39976557  0.54516633    -0.05800
Br816      Br  0.53868553  0.47680270  0.57846824    -0.00200
Br817      Br  0.53338504  0.32999574  0.59696228     0.00300
Br818      Br  0.44740592  0.41803568  0.61435873    -0.04100
Br819      Br  0.45934303  0.44844424  0.50935906     0.00400
Br820      Br  0.53062258  0.42583870  0.60862488    -0.03400
Br821      Br  0.52440786  0.37361097  0.55348026    -0.04300
Br822      Br  0.45636837  0.37537467  0.65865958    -0.00300
C823        C  0.80804176  0.31155079  0.03506351     0.01100
C824        C  0.82922408  0.30238943  0.04790220     0.03900
C825        C  0.82718186  0.29327573  0.07275105    -0.12100
C826        C  0.80380902  0.29204071  0.08488523     0.23200
C827        C  0.78263738  0.30091003  0.07201697    -0.12700
C828        C  0.78476610  0.31099884  0.04754752     0.04600
C829        C  0.80145691  0.28212535  0.11131677     0.27000
C830        C  0.80322052  0.25642280  0.11624600    -0.13400
C831        C  0.79940831  0.24708944  0.14085919     0.05100
C832        C  0.79258285  0.26325547  0.16091139    -0.09400
C833        C  0.79104863  0.28911740  0.15574402     0.06000
C834        C  0.79653780  0.29839472  0.13151837    -0.13700
Br835      Br  0.75067828  0.30010723  0.08845037    -0.05800
Br836      Br  0.86133678  0.30183875  0.03143575    -0.00200
Br837      Br  0.80389719  0.21194506  0.14660304     0.00300
Br838      Br  0.79706511  0.33377844  0.12585929    -0.04100
Br839      Br  0.75610171  0.32624137  0.03225629     0.00400
Br840      Br  0.85669246  0.28368093  0.09080385    -0.03400
Br841      Br  0.81046355  0.23383937  0.08896280    -0.04300
Br842      Br  0.77840253  0.31237182  0.18039847    -0.00300
C843        C  0.04512872  0.31053776  0.81264223     0.01100
C844        C  0.06626807  0.32501207  0.81890932     0.03900
C845        C  0.09047893  0.31474814  0.81796439    -0.12100
C846        C  0.09484154  0.29116862  0.80726594     0.23200
C847        C  0.07409679  0.27699237  0.79977612    -0.12700
C848        C  0.04942063  0.28615195  0.80328457     0.04600
C849        C  0.12117116  0.28370631  0.80026654     0.27000
C850        C  0.13375558  0.29757629  0.78180567    -0.13400
C851        C  0.15910258  0.29324497  0.77665859     0.05100
C852        C  0.17142646  0.27181179  0.78598144    -0.09400
C853        C  0.15901668  0.25791000  0.80486925     0.06000
C854        C  0.13441092  0.26451595  0.81264297    -0.13700
Br855      Br  0.07956745  0.24515503  0.78407655    -0.05800
Br856      Br  0.06323807  0.36018126  0.82579396    -0.00200
Br857      Br  0.17677766  0.31814710  0.75774030     0.00300
Br858      Br  0.11896108  0.24747896  0.84037251    -0.04100
Br859      Br  0.02191341  0.26467404  0.79563055     0.00400
Br860      Br  0.11814316  0.33343397  0.83092856    -0.03400
Br861      Br  0.11584085  0.32200465  0.76230205    -0.04300
Br862      Br  0.17544963  0.23012550  0.82050411    -0.00300
C863        C  0.80132144  0.33126853  0.26144317     0.01100
C864        C  0.81510662  0.33495432  0.23917132     0.03900
C865        C  0.81936778  0.35911248  0.22995491    -0.12100
C866        C  0.81183977  0.38002737  0.24411477     0.23200
C867        C  0.80247182  0.37620860  0.26867905    -0.12700
C868        C  0.79731758  0.35187886  0.27738981     0.04600
C869        C  0.81376938  0.40572431  0.23309928     0.27000
C870        C  0.83607248  0.41931246  0.23467491    -0.13400
C871        C  0.83831673  0.44276898  0.22281387     0.05100
C872        C  0.81814346  0.45322993  0.20944750    -0.09400
C873        C  0.79572061  0.43965830  0.20817365     0.06000
C874        C  0.79358111  0.41609743  0.21983715    -0.13700
Br875      Br  0.79650066  0.40434334  0.29020038    -0.05800
Br876      Br  0.82957995  0.30650550  0.22248396    -0.00200
Br877      Br  0.86924784  0.46052832  0.22483370     0.00300
Br878      Br  0.76330317  0.39726385  0.21669347    -0.04100
Br879      Br  0.78623894  0.34692720  0.31137900     0.00400
Br880      Br  0.83444010  0.36337433  0.19738264    -0.03400
Br881      Br  0.86374624  0.40524008  0.25268789    -0.04300
Br882      Br  0.76842132  0.45251745  0.18883158    -0.00300
C883        C  0.04214061  0.65641705  0.22451935     0.01100
C884        C  0.04918324  0.68160239  0.22248574     0.03900
C885        C  0.07331073  0.68913312  0.22941239    -0.12100
C886        C  0.09048252  0.67190256  0.23937287     0.23200
C887        C  0.08337220  0.64689089  0.24191651    -0.12700
C888        C  0.05926353  0.63925013  0.23494392     0.04600
C889        C  0.11640601  0.67991522  0.24571415     0.27000
C890        C  0.13362934  0.68450805  0.22639720    -0.13400
C891        C  0.15642113  0.69627428  0.23156065     0.05100
C892        C  0.16462906  0.69952215  0.25680239    -0.09400
C893        C  0.14795978  0.69209305  0.27637126     0.06000
C894        C  0.12362313  0.68382288  0.27074647    -0.13700
Br895      Br  0.10762245  0.62272723  0.25277939    -0.05800
Br896      Br  0.02662812  0.70586957  0.20856321    -0.00200
Br897      Br  0.17316141  0.71078127  0.20310754     0.00300
Br898      Br  0.09972730  0.67820075  0.29736213    -0.04100
Br899      Br  0.04967725  0.60518176  0.24035522     0.00400
Br900      Br  0.08368798  0.72270056  0.22278832    -0.03400
Br901      Br  0.12560091  0.67457405  0.19253993    -0.04300
Br902      Br  0.15751513  0.69250433  0.31123222    -0.00300
C903        C  0.19080605  0.44639006  0.81539007     0.01100
C904        C  0.18800311  0.43316407  0.79271280     0.03900
C905        C  0.19865967  0.40919730  0.78974382    -0.12100
C906        C  0.21269624  0.39814172  0.80916726     0.23200
C907        C  0.21646549  0.41188851  0.83139302    -0.12700
C908        C  0.20567955  0.43579932  0.83443606     0.04600
C909        C  0.22350600  0.37231623  0.80584426     0.27000
C910        C  0.21090776  0.35111443  0.81489371    -0.13400
C911        C  0.21944640  0.32691504  0.80855671     0.05100
C912        C  0.23944161  0.32362385  0.79160206    -0.09400
C913        C  0.25449750  0.34452678  0.78648868     0.06000
C914        C  0.24664645  0.36869048  0.79368262    -0.13700
Br915      Br  0.23633934  0.39782393  0.85778950    -0.05800
Br916      Br  0.16886743  0.44752763  0.76587345    -0.00200
Br917      Br  0.20684542  0.29864146  0.82628263     0.00300
Br918      Br  0.26805142  0.39676578  0.78815603    -0.04100
Br919      Br  0.21227240  0.45473423  0.86436960     0.00400
Br920      Br  0.19324071  0.39110299  0.75917642    -0.03400
Br921      Br  0.18243123  0.35527367  0.83654709    -0.04300
Br922      Br  0.28710655  0.33982204  0.77217535    -0.00300
C923        C  0.23888472  0.69521101  0.17732661     0.01100
C924        C  0.22039790  0.67680990  0.17627964     0.03900
C925        C  0.20948862  0.67033226  0.15300436    -0.12100
C926        C  0.21867796  0.68049340  0.13028845     0.23200
C927        C  0.24028929  0.69523576  0.13119187    -0.12700
C928        C  0.25013362  0.70276949  0.15455061     0.04600
C929        C  0.20513275  0.67725951  0.10575052     0.27000
C930        C  0.21219842  0.65871892  0.08827284    -0.13400
C931        C  0.20137304  0.65799206  0.06405925     0.05100
C932        C  0.18267707  0.67520187  0.05728947    -0.09400
C933        C  0.17451845  0.69267427  0.07534313     0.06000
C934        C  0.18592446  0.69397488  0.09918041    -0.13700
Br935      Br  0.25593459  0.70564992  0.10028323    -0.05800
Br936      Br  0.21154680  0.65949667  0.20663257    -0.00200
Br937      Br  0.21186490  0.63318443  0.04010025     0.00300
Br938      Br  0.17489404  0.71848637  0.12320002    -0.04100
Br939      Br  0.27955934  0.72283736  0.15536327     0.00400
Br940      Br  0.18129994  0.64851617  0.15235948    -0.03400
Br941      Br  0.23594703  0.63370717  0.09798923    -0.04300
Br942      Br  0.14702086  0.71436658  0.06764164    -0.00300
C943        C  0.03782690  0.49730957  0.96741677     0.01100
C944        C  0.05533774  0.47724851  0.96754676     0.03900
C945        C  0.07510721  0.47562779  0.94971443    -0.12100
C946        C  0.07826557  0.49392809  0.93118788     0.23200
C947        C  0.06248155  0.51473339  0.93173613    -0.12700
C948        C  0.04288320  0.51678071  0.94966107     0.04600
C949        C  0.09742436  0.49128487  0.91039450     0.27000
C950        C  0.11995936  0.50472495  0.91089859    -0.13400
C951        C  0.13600909  0.50510905  0.88966103     0.05100
C952        C  0.12981441  0.49203759  0.86759703    -0.09400
C953        C  0.10785791  0.47773065  0.86748915     0.06000
C954        C  0.09197031  0.47716173  0.88879711    -0.13700
Br955      Br  0.06754648  0.54029109  0.90662298    -0.05800
Br956      Br  0.05538932  0.45354577  0.99438255    -0.00200
Br957      Br  0.16702777  0.52288565  0.89101292     0.00300
Br958      Br  0.06268288  0.45677337  0.88856302    -0.04100
Br959      Br  0.02268352  0.54597038  0.94638337     0.00400
Br960      Br  0.09886066  0.44869982  0.95104149    -0.03400
Br961      Br  0.12903496  0.52223035  0.94095704    -0.04300
Br962      Br  0.09892030  0.45968586  0.83764246    -0.00300
C963        C  0.02944639  0.53810127  0.00722618     0.01100
C964        C  0.01835074  0.56168817  0.00225893     0.03900
C965        C  0.03279696  0.58361193  0.00234940    -0.12100
C966        C  0.05751838  0.58298454  0.01081001     0.23200
C967        C  0.06765339  0.56025507  0.01870392    -0.12700
C968        C  0.05496580  0.53789319  0.01430775     0.04600
C969        C  0.07473150  0.60457118  0.00768634     0.27000
C970        C  0.09412720  0.60282280  0.98973588    -0.13400
C971        C  0.11422905  0.61947279  0.99031173     0.05100
C972        C  0.11457330  0.63886629  0.00813832    -0.09400
C973        C  0.09406213  0.64202861  0.02455099     0.06000
C974        C  0.07418973  0.62497562  0.02431901    -0.13700
Br975      Br  0.10000813  0.55986680  0.03451217    -0.05800
Br976      Br  0.98458003  0.56394142  0.99026883    -0.00200
Br977      Br  0.14224502  0.61410096  0.96804434     0.00300
Br978      Br  0.04627135  0.62992949  0.04658080    -0.04100
Br979      Br  0.07540084  0.50866806  0.01442842     0.00400
Br980      Br  0.01942139  0.61404403  0.98882985    -0.03400
Br981      Br  0.09334525  0.57693793  0.96466588    -0.04300
Br982      Br  0.09297852  0.67003905  0.04712107    -0.00300
C983        C  0.00379914  0.60269110  0.16107077     0.01100
C984        C  0.02315276  0.60493263  0.14300772     0.03900
C985        C  0.02439599  0.58856907  0.12231466    -0.12100
C986        C  0.00624931  0.57003102  0.11919365     0.23200
C987        C  0.98799414  0.56675848  0.13805410    -0.12700
C988        C  0.98643583  0.58323398  0.15859030     0.04600
C989        C  0.00425681  0.55602473  0.09494627     0.27000
C990        C  0.98475269  0.56173194  0.07850654    -0.13400
C991        C  0.98049018  0.54710724  0.05695824     0.05100
C992        C  0.99719563  0.52750485  0.04997554    -0.09400
C993        C  0.01754915  0.52275738  0.06640011     0.06000
C994        C  0.02057719  0.53643767  0.08886846    -0.13700
Br995      Br  0.96478985  0.53971649  0.13541305    -0.05800
Br996      Br  0.04678283  0.63182389  0.14483227    -0.00200
Br997      Br  0.95057893  0.55472694  0.03924762     0.00300
Br998      Br  0.04653746  0.52765763  0.11215193    -0.04100
Br999      Br  0.96014182  0.57904402  0.18308782     0.00400
Br1000     Br  0.05080960  0.59186999  0.09796750    -0.03400
Br1001     Br  0.96363919  0.59018167  0.08590750    -0.04300
Br1002     Br  0.03965809  0.49495582  0.06077893    -0.00300
C1003       C  0.95301482  0.49357918  0.04214043     0.01100
C1004       C  0.92839625  0.50032836  0.03468064     0.03900
C1005       C  0.90818200  0.49976298  0.05184279    -0.12100
C1006       C  0.91191806  0.49317837  0.07698718     0.23200
C1007       C  0.93581141  0.48652370  0.08488851    -0.12700
C1008       C  0.95615551  0.48673977  0.06793991     0.04600
C1009       C  0.89118721  0.49470522  0.09582827     0.27000
C1010       C  0.88661076  0.51712220  0.10861993    -0.13400
C1011       C  0.86947302  0.51809127  0.12881372     0.05100
C1012       C  0.85621238  0.49641734  0.13628616    -0.09400
C1013       C  0.85942029  0.47448432  0.12175044     0.06000
C1014       C  0.87729744  0.47351949  0.10218172    -0.13700
Br1015     Br  0.94019038  0.47651317  0.11951236    -0.05800
Br1016     Br  0.92191402  0.51464980  0.00238724    -0.00200
Br1017     Br  0.86550110  0.54952917  0.14601378     0.00300
Br1018     Br  0.88338249  0.44295806  0.08422228    -0.04100
Br1019     Br  0.98704360  0.47502350  0.08140730     0.00400
Br1020     Br  0.87507833  0.50902857  0.04139140    -0.03400
Br1021     Br  0.90456596  0.54652261  0.09856371    -0.04300
Br1022     Br  0.83807437  0.44613906  0.12670252    -0.00300
C1023       C  0.95291760  0.45953098  0.99729266     0.01100
C1024       C  0.93733037  0.46181581  0.97569946     0.03900
C1025       C  0.91660697  0.44608047  0.97205489    -0.12100
C1026       C  0.91093419  0.42740174  0.98940426     0.23200
C1027       C  0.92581286  0.42456826  0.01065241    -0.12700
C1028       C  0.94633284  0.44035345  0.01481376     0.04600
C1029       C  0.88935106  0.41037793  0.98560564     0.27000
C1030       C  0.86674836  0.41461276  0.99856208    -0.13400
C1031       C  0.84800228  0.39640199  0.99864383     0.05100
C1032       C  0.85107973  0.37443644  0.98453768    -0.09400
C1033       C  0.87301526  0.37086753  0.97027607     0.06000
C1034       C  0.89229161  0.38852305  0.97127086    -0.13700
Br1035     Br  0.91765144  0.39823453  0.03409861    -0.05800
Br1036     Br  0.94163889  0.48775597  0.95145927    -0.00200
Br1037     Br  0.81824968  0.40127228  0.01857434     0.00300
Br1038     Br  0.92337194  0.38212905  0.95425700    -0.04100
Br1039     Br  0.96463008  0.43326144  0.04467512     0.00400
Br1040     Br  0.89489694  0.45043506  0.94360817    -0.03400
Br1041     Br  0.86174426  0.44520090  0.01663051    -0.04300
Br1042     Br  0.87739789  0.34099802  0.95072285    -0.00300
C1043       C  0.99726295  0.45840377  0.96280121     0.01100
C1044       C  0.99650803  0.46423009  0.93658893     0.03900
C1045       C  0.99588915  0.44527692  0.91819824    -0.12100
C1046       C  0.99470852  0.42020070  0.92524395     0.23200
C1047       C  0.99548819  0.41405269  0.95082494    -0.12700
C1048       C  0.99809531  0.43271231  0.96918618     0.04600
C1049       C  0.99356057  0.40019511  0.90573281     0.27000
C1050       C  0.97182171  0.39645600  0.89163858    -0.13400
C1051       C  0.97131345  0.37847301  0.87223571     0.05100
C1052       C  0.99214625  0.36232816  0.86809443    -0.09400
C1053       C  0.01259079  0.36439961  0.88487878     0.06000
C1054       C  0.01414795  0.38448408  0.90172153    -0.13700
Br1055     Br  0.99278942  0.37961354  0.96079613    -0.05800
Br1056     Br  0.99427908  0.49750160  0.92402352    -0.00200
Br1057     Br  0.94152530  0.37706999  0.85218321     0.00300
Br1058     Br  0.04506328  0.39105258  0.91882942    -0.04100
Br1059     Br  0.00541798  0.42162470  0.00247590     0.00400
Br1060     Br  0.99613468  0.45352340  0.88279981    -0.03400
Br1061     Br  0.94272568  0.41657488  0.89881050    -0.04300
Br1062     Br  0.03740302  0.33848756  0.88829939    -0.00300
C1063       C  0.25663011  0.79126288  0.17878516     0.01100
C1064       C  0.24571859  0.78248583  0.15647807     0.03900
C1065       C  0.25509086  0.78977500  0.13280932    -0.12100
C1066       C  0.27517797  0.80645431  0.13115064     0.23200
C1067       C  0.28383052  0.81776724  0.15338744    -0.12700
C1068       C  0.27394130  0.81073171  0.17704283     0.04600
C1069       C  0.28720790  0.81169551  0.10616404     0.27000
C1070       C  0.30366687  0.79419395  0.09516584    -0.13400
C1071       C  0.31432496  0.79855545  0.07127687     0.05100
C1072       C  0.30931638  0.82081245  0.05836143    -0.09400
C1073       C  0.29360364  0.83876609  0.06971843     0.06000
C1074       C  0.28203501  0.83390340  0.09312952    -0.13700
Br1075     Br  0.31067539  0.84129318  0.15164591    -0.05800
Br1076     Br  0.21725135  0.76110534  0.15834932    -0.00200
Br1077     Br  0.33704975  0.77460737  0.05676497     0.00300
Br1078     Br  0.25856273  0.85736934  0.10716585    -0.04100
Br1079     Br  0.28386354  0.82765743  0.20712984     0.00400
Br1080     Br  0.24115155  0.77600367  0.10261834    -0.03400
Br1081     Br  0.31215382  0.76435616  0.11305807    -0.04300
Br1082     Br  0.28793400  0.87013287  0.05327942    -0.00300
C1083       C  0.33126683  0.79433944  0.23980273     0.01100
C1084       C  0.34608526  0.80371928  0.25960422     0.03900
C1085       C  0.37013187  0.81335106  0.25454138    -0.12100
C1086       C  0.37914464  0.81478531  0.22966804     0.23200
C1087       C  0.36409252  0.80661625  0.20993022    -0.12700
C1088       C  0.34115694  0.79512979  0.21495922     0.04600
C1089       C  0.40492774  0.82343535  0.22372262     0.27000
C1090       C  0.40948840  0.84874551  0.21929184    -0.13400
C1091       C  0.43279244  0.85659826  0.20991926     0.05100
C1092       C  0.45169048  0.83896586  0.20394655    -0.09400
C1093       C  0.44686251  0.81345825  0.20828318     0.06000
C1094       C  0.42389725  0.80590828  0.21873469    -0.13700
Br1095     Br  0.37554895  0.81063040  0.17568286    -0.05800
Br1096     Br  0.33525152  0.80051104  0.29405170    -0.00200
Br1097     Br  0.43816773  0.89177213  0.20540876     0.00300
Br1098     Br  0.41766860  0.77117139  0.22493124    -0.04100
Br1099     Br  0.32527048  0.77837515  0.18737644     0.00400
Br1100     Br  0.39149139  0.82339509  0.28162260    -0.03400
Br1101     Br  0.38299458  0.87248672  0.22469172    -0.04300
Br1102     Br  0.47007041  0.78815598  0.19715866    -0.00300
C1103       C  0.46237091  0.19078728  0.80130399     0.01100
C1104       C  0.45285358  0.19492856  0.77698579     0.03900
C1105       C  0.42781965  0.20242405  0.77392019    -0.12100
C1106       C  0.41226857  0.20646772  0.79505046     0.23200
C1107       C  0.42209834  0.20371433  0.81924921    -0.12700
C1108       C  0.44711521  0.19661889  0.82237861     0.04600
C1109       C  0.38522949  0.21200120  0.79180483     0.27000
C1110       C  0.37569245  0.23623705  0.79517217    -0.13400
C1111       C  0.35024151  0.24141026  0.79082400     0.05100
C1112       C  0.33434067  0.22255556  0.78189248    -0.09400
C1113       C  0.34446558  0.19832998  0.77796707     0.06000
C1114       C  0.36917116  0.19288629  0.78448143    -0.13700
Br1115     Br  0.40057318  0.20760579  0.84819502    -0.05800
Br1116     Br  0.47334873  0.18936136  0.74764187    -0.00200
Br1117     Br  0.33831411  0.27509483  0.79387164     0.00300
Br1118     Br  0.38138532  0.15907213  0.78284774    -0.04100
Br1119     Br  0.46039712  0.19571377  0.85593260     0.00400
Br1120     Br  0.41409342  0.20506240  0.74066451    -0.03400
Br1121     Br  0.39799788  0.26256889  0.80445517    -0.04300
Br1122     Br  0.32575934  0.17228914  0.76178402    -0.00300
C1123       C  0.26378405  0.16877243  0.79601065     0.01100
C1124       C  0.24554380  0.15000580  0.79496082     0.03900
C1125       C  0.25139651  0.12526628  0.80191033    -0.12100
C1126       C  0.27602093  0.11863409  0.80819704     0.23200
C1127       C  0.29290576  0.13804492  0.81317597    -0.12700
C1128       C  0.28600003  0.16310637  0.80870610     0.04600
C1129       C  0.28396592  0.09162142  0.80932695     0.27000
C1130       C  0.28240151  0.07793087  0.83183011    -0.13400
C1131       C  0.28996210  0.05264864  0.83259994     0.05100
C1132       C  0.29984723  0.04054566  0.81098615    -0.09400
C1133       C  0.30090409  0.05422304  0.78832256     0.06000
C1134       C  0.29317025  0.07950896  0.78757190    -0.13700
Br1135     Br  0.32539143  0.13038446  0.82606435    -0.05800
Br1136     Br  0.21207188  0.15855839  0.78585426    -0.00200
Br1137     Br  0.28627103  0.03441633  0.86354604     0.00300
Br1138     Br  0.29664697  0.09835583  0.75698023    -0.04100
Br1139     Br  0.30408944  0.18957064  0.82417756     0.00400
Br1140     Br  0.22550967  0.10085462  0.80450984    -0.03400
Br1141     Br  0.27094366  0.09434594  0.86197772    -0.04300
Br1142     Br  0.31441759  0.03893738  0.75850774    -0.00300
C1143       C  0.71484704  0.24267167  0.15605246     0.01100
C1144       C  0.70637942  0.26200720  0.13997440     0.03900
C1145       C  0.69931680  0.25669531  0.11487796    -0.12100
C1146       C  0.70040770  0.23219365  0.10562652     0.23200
C1147       C  0.70865615  0.21308032  0.12135756    -0.12700
C1148       C  0.71727871  0.21836726  0.14555159     0.04600
C1149       C  0.69387789  0.22572410  0.07919437     0.27000
C1150       C  0.66911191  0.22033320  0.07298840    -0.13400
C1151       C  0.66353227  0.20828402  0.05017916     0.05100
C1152       C  0.68293493  0.20036539  0.03373840    -0.09400
C1153       C  0.70784839  0.20624270  0.04000515     0.06000
C1154       C  0.71299968  0.21994473  0.06191436    -0.13700
Br1155     Br  0.70806536  0.17906163  0.10949768    -0.05800
Br1156     Br  0.70520126  0.29598886  0.15123783    -0.00200
Br1157     Br  0.62902878  0.20308422  0.04198602     0.00300
Br1158     Br  0.74653378  0.23016829  0.06898338    -0.04100
Br1159     Br  0.73593526  0.19207799  0.16146601     0.00400
Br1160     Br  0.68776583  0.28269647  0.09291744    -0.03400
Br1161     Br  0.64292584  0.22877887  0.09645492    -0.04300
Br1162     Br  0.73561195  0.19295985  0.02089792    -0.00300
C1163       C  0.69326341  0.04153210  0.16989359     0.01100
C1164       C  0.71182187  0.05847224  0.16213918     0.03900
C1165       C  0.71336378  0.08251676  0.17311336    -0.12100
C1166       C  0.69636240  0.09012633  0.19209621     0.23200
C1167       C  0.67798312  0.07306156  0.19996045    -0.12700
C1168       C  0.67634688  0.04915054  0.18885912     0.04600
C1169       C  0.69771602  0.11586979  0.20377169     0.27000
C1170       C  0.70846998  0.11939940  0.22764369    -0.13400
C1171       C  0.71036300  0.14349639  0.23820608     0.05100
C1172       C  0.70263872  0.16474091  0.22482360    -0.09400
C1173       C  0.68975336  0.16103104  0.20212648     0.06000
C1174       C  0.68747652  0.13687726  0.19156742    -0.13700
Br1175     Br  0.65465566  0.08271877  0.22584812    -0.05800
Br1176     Br  0.73457037  0.04901630  0.13565971    -0.00200
Br1177     Br  0.72344416  0.14767707  0.27136517     0.00300
Br1178     Br  0.67082778  0.13257768  0.15999408    -0.04100
Br1179     Br  0.65055406  0.02670191  0.19947032     0.00400
Br1180     Br  0.73868788  0.10524503  0.16189642    -0.03400
Br1181     Br  0.72180347  0.09128744  0.24544021    -0.04300
Br1182     Br  0.67394256  0.18906168  0.18644417    -0.00300
C1183       C  0.36514465  0.99328227  0.85431790     0.01100
C1184       C  0.38092076  0.01412097  0.85717845     0.03900
C1185       C  0.39845300  0.01496734  0.87677121    -0.12100
C1186       C  0.40181671  0.99445969  0.89282512     0.23200
C1187       C  0.38714628  0.97313010  0.88920729    -0.12700
C1188       C  0.36835848  0.97280412  0.87072581     0.04600
C1189       C  0.42140351  0.99524718  0.91286486     0.27000
C1190       C  0.44644364  0.99125109  0.90661993    -0.13400
C1191       C  0.46539766  0.99404293  0.92478419     0.05100
C1192       C  0.45978995  0.00024492  0.95043855    -0.09400
C1193       C  0.43386894  0.00375111  0.95624644     0.06000
C1194       C  0.41516269  0.00106917  0.93777489    -0.13700
Br1195     Br  0.39333777  0.94405599  0.90927449    -0.05800
Br1196     Br  0.38013075  0.04112211  0.83330356    -0.00200
Br1197     Br  0.49835447  0.98713271  0.91293047     0.00300
Br1198     Br  0.38035023  0.00542629  0.94631267    -0.04100
Br1199     Br  0.34628821  0.94469037  0.86937914     0.00400
Br1200     Br  0.41814248  0.04438382  0.88163543    -0.03400
Br1201     Br  0.45424859  0.98059743  0.87271474    -0.04300
Br1202     Br  0.42238615  0.01477483  0.98850979    -0.00300
C1203       C  0.36908235  0.86807310  0.00690096     0.01100
C1204       C  0.36195876  0.89117600  0.99687347     0.03900
C1205       C  0.37986849  0.90972510  0.99282500    -0.12100
C1206       C  0.40492365  0.90533564  0.99910919     0.23200
C1207       C  0.41207490  0.88213679  0.00903040    -0.12700
C1208       C  0.39417479  0.86348153  0.01279415     0.04600
C1209       C  0.42334644  0.92573465  0.99704269     0.27000
C1210       C  0.43919385  0.92750187  0.97617064    -0.13400
C1211       C  0.45776953  0.94590841  0.97521284     0.05100
C1212       C  0.45931547  0.96469763  0.99406225    -0.09400
C1213       C  0.44188119  0.96308055  0.01454953     0.06000
C1214       C  0.42492516  0.94325879  0.01630771    -0.13700
Br1215     Br  0.44638063  0.87604424  0.01750877    -0.05800
Br1216     Br  0.32752989  0.89742656  0.98904231    -0.00200
Br1217     Br  0.48313692  0.94170233  0.95000455     0.00300
Br1218     Br  0.40292103  0.93995406  0.04514936    -0.04100
Br1219     Br  0.40396202  0.83148699  0.02567845     0.00400
Br1220     Br  0.37019573  0.94125779  0.97878792    -0.03400
Br1221     Br  0.43547685  0.90402484  0.94905725    -0.04300
Br1222     Br  0.43758404  0.98807071  0.03983708    -0.00300
C1223       C  0.63236165  0.13769177  0.98861346     0.01100
C1224       C  0.62699762  0.12320600  0.01022760     0.03900
C1225       C  0.60586109  0.10773484  0.01096727    -0.12100
C1226       C  0.59162825  0.10383620  0.98923635     0.23200
C1227       C  0.59761237  0.11709152  0.96728014    -0.12700
C1228       C  0.61692594  0.13481484  0.96724821     0.04600
C1229       C  0.57328360  0.08294115  0.98840915     0.27000
C1230       C  0.58197579  0.05890506  0.98345030    -0.13400
C1231       C  0.56570636  0.03836256  0.98420422     0.05100
C1232       C  0.53943549  0.04157952  0.98852065    -0.09400
C1233       C  0.53119205  0.06629415  0.99376542     0.06000
C1234       C  0.54784715  0.08664415  0.99337410    -0.13700
Br1235     Br  0.58011224  0.10975127  0.93676368    -0.05800
Br1236     Br  0.65000286  0.12158079  0.03789820    -0.00200
Br1237     Br  0.58196279  0.00700882  0.97922465     0.00300
Br1238     Br  0.53610376  0.11985828  0.00027799    -0.04100
Br1239     Br  0.62102669  0.15531973  0.93779997     0.00400
Br1240     Br  0.59650058  0.09138670  0.04176844    -0.03400
Br1241     Br  0.61692779  0.05463663  0.97489882    -0.04300
Br1242     Br  0.49821995  0.07232446  0.00668311    -0.00300
C1243       C  0.50576536  0.12644145  0.84788643     0.01100
C1244       C  0.49785062  0.10204769  0.84305875     0.03900
C1245       C  0.49723537  0.08452571  0.86259929    -0.12100
C1246       C  0.50386141  0.09164123  0.88709916     0.23200
C1247       C  0.51033235  0.11643065  0.89218087    -0.12700
C1248       C  0.51134540  0.13380089  0.87257324     0.04600
C1249       C  0.50294270  0.07335481  0.90780279     0.27000
C1250       C  0.48203031  0.07237765  0.92351390    -0.13400
C1251       C  0.48153719  0.05606681  0.94411795     0.05100
C1252       C  0.50120763  0.03864058  0.94811108    -0.09400
C1253       C  0.52187500  0.03944109  0.93112370     0.06000
C1254       C  0.52303519  0.05728850  0.91187099    -0.13700
Br1255     Br  0.51671098  0.12673554  0.92621180    -0.05800
Br1256     Br  0.48663712  0.09313256  0.80999207    -0.00200
Br1257     Br  0.45429813  0.06048389  0.96696647     0.00300
Br1258     Br  0.55212944  0.05973901  0.89045089    -0.04100
Br1259     Br  0.51899735  0.16799499  0.87977435     0.00400
Br1260     Br  0.48660734  0.05098427  0.85614156    -0.03400
Br1261     Br  0.45406135  0.09405573  0.91658103    -0.04300
Br1262     Br  0.54775062  0.01474587  0.93098437    -0.00300
C1263       C  0.49579001  0.89162842  0.14234874     0.01100
C1264       C  0.47720816  0.89091666  0.12368012     0.03900
C1265       C  0.47685928  0.90886322  0.10455743    -0.12100
C1266       C  0.49524412  0.92738769  0.10344248     0.23200
C1267       C  0.51301170  0.92896937  0.12262979    -0.12700
C1268       C  0.51361222  0.91095685  0.14178998     0.04600
C1269       C  0.49752485  0.94291898  0.08045059     0.27000
C1270       C  0.50503889  0.93156741  0.05791660    -0.13400
C1271       C  0.50274750  0.94426532  0.03503436     0.05100
C1272       C  0.49755659  0.97019123  0.03469327    -0.09400
C1273       C  0.49248000  0.98208221  0.05809962     0.06000
C1274       C  0.49060900  0.96808647  0.08039516    -0.13700
Br1275     Br  0.53639836  0.95600775  0.12272162    -0.05800
Br1276     Br  0.45341791  0.86414066  0.12236453    -0.00200
Br1277     Br  0.50459600  0.92409043  0.00547608     0.00300
Br1278     Br  0.47721642  0.98296552  0.11060611    -0.04100
Br1279     Br  0.53908717  0.91323976  0.16706376     0.00400
Br1280     Br  0.45146949  0.90771516  0.07920576    -0.03400
Br1281     Br  0.51843976  0.89813051  0.05856998    -0.04300
Br1282     Br  0.48493644  0.01712965  0.05999588    -0.00300
C1283       C  0.54239441  0.99802323  0.02550894     0.01100
C1284       C  0.55801242  0.97675459  0.02204377     0.03900
C1285       C  0.57906003  0.97275664  0.03750114    -0.12100
C1286       C  0.58261696  0.98727241  0.05914145     0.23200
C1287       C  0.56542498  0.00627594  0.06448072    -0.12700
C1288       C  0.54770424  0.01353908  0.04651130     0.04600
C1289       C  0.60617305  0.98609668  0.07420601     0.27000
C1290       C  0.61025142  0.96752194  0.09236957    -0.13400
C1291       C  0.62967852  0.96998749  0.10999084     0.05100
C1292       C  0.64611343  0.99053280  0.10890230    -0.09400
C1293       C  0.64297444  0.00815672  0.08949432     0.06000
C1294       C  0.62339787  0.00569157  0.07215330    -0.13700
Br1295     Br  0.56693340  0.02307193  0.09655195    -0.05800
Br1296     Br  0.55403499  0.95556448  0.99310554    -0.00200
Br1297     Br  0.63211067  0.94602648  0.13684386     0.00300
Br1298     Br  0.62044742  0.02874713  0.04465893    -0.04100
Br1299     Br  0.53564622  0.04689101  0.05009663     0.00400
Br1300     Br  0.60427347  0.94898083  0.02780256    -0.03400
Br1301     Br  0.58996992  0.93814103  0.09252731    -0.04300
Br1302     Br  0.66560669  0.03565824  0.08598425    -0.00300
C1303       C  0.76172705  0.84436887  0.28300820     0.01100
C1304       C  0.74682571  0.86611328  0.28198430     0.03900
C1305       C  0.75758062  0.88964266  0.28592388    -0.12100
C1306       C  0.78265885  0.89162674  0.29308131     0.23200
C1307       C  0.79694998  0.86994325  0.29632792    -0.12700
C1308       C  0.78656647  0.84648217  0.29145418     0.04600
C1309       C  0.79351481  0.91638672  0.29890921     0.27000
C1310       C  0.80979972  0.92804759  0.28174350    -0.13400
C1311       C  0.82058576  0.95107302  0.28773119     0.05100
C1312       C  0.81493687  0.96270478  0.31076718    -0.09400
C1313       C  0.79835184  0.95130808  0.32775227     0.06000
C1314       C  0.78786208  0.92810598  0.32196153    -0.13700
Br1315     Br  0.83089506  0.87250818  0.30757771    -0.05800
Br1316     Br  0.71146926  0.86430041  0.27684708    -0.00200
Br1317     Br  0.84406089  0.96623015  0.26492742     0.00300
Br1318     Br  0.76617707  0.91200251  0.34587318    -0.04100
Br1319     Br  0.80582215  0.81723522  0.29921925     0.00400
Br1320     Br  0.73823298  0.91948416  0.28091291    -0.03400
Br1321     Br  0.81773433  0.91224227  0.25024117    -0.04300
Br1322     Br  0.78960736  0.96779841  0.35874375    -0.00300
C1323       C  0.71303316  0.95056493  0.15709406     0.01100
C1324       C  0.72608308  0.93649016  0.13870542     0.03900
C1325       C  0.73483388  0.91211073  0.14404935    -0.12100
C1326       C  0.72954773  0.90078904  0.16740657     0.23200
C1327       C  0.71710340  0.91514027  0.18592416    -0.12700
C1328       C  0.70942038  0.93989218  0.18103158     0.04600
C1329       C  0.73759184  0.87429664  0.17315808     0.27000
C1330       C  0.72293234  0.85367545  0.16612779    -0.13400
C1331       C  0.72826647  0.82948455  0.17554062     0.05100
C1332       C  0.74839290  0.82549579  0.19204234    -0.09400
C1333       C  0.76465412  0.84561251  0.19649628     0.06000
C1334       C  0.75922743  0.86972396  0.18728358    -0.13700
Br1335     Br  0.70990821  0.90053815  0.21804623    -0.05800
Br1336     Br  0.73232919  0.95085310  0.10613703    -0.00200
Br1337     Br  0.70798577  0.80175083  0.16595978     0.00300
Br1338     Br  0.78109020  0.89696275  0.19453115    -0.04100
Br1339     Br  0.69288169  0.95884013  0.20699339     0.00400
Br1340     Br  0.75458241  0.89433109  0.11959081    -0.03400
Br1341     Br  0.69512648  0.85879047  0.14409681    -0.04300
Br1342     Br  0.79413175  0.84038206  0.21620062    -0.00300
C1343       C  0.82578078  0.71210993  0.22037231     0.01100
C1344       C  0.84220681  0.72446173  0.20328875     0.03900
C1345       C  0.86735462  0.71682095  0.20077614    -0.12100
C1346       C  0.87561695  0.69436810  0.21146009     0.23200
C1347       C  0.85843848  0.67990004  0.22501599    -0.12700
C1348       C  0.83431248  0.68910804  0.23058009     0.04600
C1349       C  0.90220785  0.68572137  0.20854578     0.27000
C1350       C  0.91126161  0.67710131  0.18520254    -0.13400
C1351       C  0.93580164  0.66777235  0.18281664     0.05100
C1352       C  0.95137895  0.66528700  0.20419042    -0.09400
C1353       C  0.94240713  0.67471067  0.22750108     0.06000
C1354       C  0.91822639  0.68517940  0.22944684    -0.13700
Br1355     Br  0.86841221  0.64723156  0.23633954    -0.05800
Br1356     Br  0.83111084  0.75147519  0.18211327    -0.00200
Br1357     Br  0.94802007  0.66013692  0.14940992     0.00300
Br1358     Br  0.90663917  0.69851713  0.26112455    -0.04100
Br1359     Br  0.81420703  0.66926279  0.25268193     0.00400
Br1360     Br  0.89103146  0.73811993  0.18403638    -0.03400
Br1361     Br  0.88964819  0.67730272  0.15637381    -0.04300
Br1362     Br  0.96221143  0.67258516  0.25752043    -0.00300
C1363       C  0.82893739  0.74877077  0.29565774     0.01100
C1364       C  0.84975260  0.75641185  0.28106101     0.03900
C1365       C  0.87330238  0.75957555  0.29185243    -0.12100
C1366       C  0.87604815  0.75964804  0.31806095     0.23200
C1367       C  0.85550383  0.75217092  0.33309807    -0.12700
C1368       C  0.83236164  0.74577982  0.32180047     0.04600
C1369       C  0.89907689  0.77199685  0.32828549     0.27000
C1370       C  0.91969827  0.75831459  0.33727806    -0.13400
C1371       C  0.94332580  0.76984357  0.33980925     0.05100
C1372       C  0.94722983  0.79429153  0.33095747    -0.09400
C1373       C  0.92648851  0.80783450  0.32229879     0.06000
C1374       C  0.90245917  0.79745629  0.32303518    -0.13700
Br1375     Br  0.85856220  0.75191063  0.36904650    -0.05800
Br1376     Br  0.84634480  0.76654951  0.24673566    -0.00200
Br1377     Br  0.97017531  0.75242470  0.35585182     0.00300
Br1378     Br  0.87395480  0.81787189  0.31550369    -0.04100
Br1379     Br  0.80459301  0.73564056  0.34231990     0.00400
Br1380     Br  0.90198062  0.76589897  0.27056397    -0.03400
Br1381     Br  0.91579122  0.72380588  0.34560418    -0.04300
Br1382     Br  0.93114217  0.83939593  0.30612839    -0.00300
C1383       C  0.66439906  0.54298100  0.31119153     0.01100
C1384       C  0.67402630  0.55713656  0.33128339     0.03900
C1385       C  0.68381715  0.58104944  0.32685886    -0.12100
C1386       C  0.68404300  0.59106502  0.30242596     0.23200
C1387       C  0.67318972  0.57752740  0.28269630    -0.12700
C1388       C  0.66371543  0.55352584  0.28696074     0.04600
C1389       C  0.69623970  0.61549435  0.29733294     0.27000
C1390       C  0.68187987  0.63714313  0.29455896    -0.13400
C1391       C  0.69320536  0.65964343  0.28726301     0.05100
C1392       C  0.71969523  0.66166253  0.28579263    -0.09400
C1393       C  0.73398104  0.63994076  0.29027797     0.06000
C1394       C  0.72225432  0.61688425  0.29458211    -0.13700
Br1395     Br  0.67053812  0.59221413  0.24988360    -0.05800
Br1396     Br  0.67488914  0.54360645  0.36479425    -0.00200
Br1397     Br  0.67123908  0.68659111  0.27814945     0.00300
Br1398     Br  0.74167930  0.58666258  0.29541163    -0.04100
Br1399     Br  0.64874108  0.53558006  0.25962216     0.00400
Br1400     Br  0.69654883  0.60053032  0.35429208    -0.03400
Br1401     Br  0.64640871  0.63566437  0.30063845    -0.04300
Br1402     Br  0.76964666  0.64072416  0.28955953    -0.00300
C1403       C  0.75525850  0.67074727  0.20445391     0.01100
C1404       C  0.77836950  0.66553529  0.19285648     0.03900
C1405       C  0.78793231  0.64090907  0.19164449    -0.12100
C1406       C  0.77335817  0.62057348  0.19965081     0.23200
C1407       C  0.74877500  0.62547042  0.20782261    -0.12700
C1408       C  0.73991637  0.65024246  0.21049008     0.04600
C1409       C  0.78256053  0.59399673  0.19678550     0.27000
C1410       C  0.77806110  0.58085633  0.17436905    -0.13400
C1411       C  0.78591809  0.55587372  0.17149888     0.05100
C1412       C  0.79861900  0.54332447  0.19098726    -0.09400
C1413       C  0.80249563  0.55618677  0.21378790     0.06000
C1414       C  0.79483760  0.58138321  0.21650428    -0.13700
Br1415     Br  0.72727850  0.59789577  0.21517639    -0.05800
Br1416     Br  0.79410546  0.69141200  0.17403317    -0.00200
Br1417     Br  0.77856834  0.53857872  0.14070385     0.00300
Br1418     Br  0.80239912  0.59901473  0.24685373    -0.04100
Br1419     Br  0.70615871  0.65599014  0.22125997     0.00400
Br1420     Br  0.82121191  0.63508506  0.17936593    -0.03400
Br1421     Br  0.76152050  0.59750743  0.14714422    -0.04300
Br1422     Br  0.81931162  0.53972550  0.24102326    -0.00300
C1423       C  0.66562741  0.78411298  0.21721519     0.01100
C1424       C  0.64542297  0.76765879  0.21427272     0.03900
C1425       C  0.62114423  0.77700719  0.21041794    -0.12100
C1426       C  0.61694604  0.80275404  0.20829795     0.23200
C1427       C  0.63700346  0.81919935  0.21065313    -0.12700
C1428       C  0.66094942  0.81004496  0.21604052     0.04600
C1429       C  0.59152423  0.81252471  0.20299105     0.27000
C1430       C  0.58285782  0.81290040  0.17814837    -0.13400
C1431       C  0.55891633  0.82210144  0.17280293     0.05100
C1432       C  0.54347301  0.83140272  0.19230596    -0.09400
C1433       C  0.55212316  0.83081432  0.21728499     0.06000
C1434       C  0.57615444  0.82160522  0.22254736    -0.13700
Br1435     Br  0.63143974  0.85447457  0.20685187    -0.05800
Br1436     Br  0.65029463  0.73237881  0.21794763    -0.00200
Br1437     Br  0.54710613  0.82081616  0.13869445     0.00300
Br1438     Br  0.58847013  0.82224719  0.25644288    -0.04100
Br1439     Br  0.68669141  0.83368211  0.22298846     0.00400
Br1440     Br  0.59316197  0.75476269  0.20925489    -0.03400
Br1441     Br  0.60432811  0.80136985  0.15133690    -0.04300
Br1442     Br  0.53167921  0.84364703  0.24430975    -0.00300
C1443       C  0.55697680  0.70928673  0.33979027     0.01100
C1444       C  0.56760082  0.70982811  0.31541490     0.03900
C1445       C  0.59188317  0.71933143  0.31143618    -0.12100
C1446       C  0.60618497  0.72823059  0.33169282     0.23200
C1447       C  0.59545971  0.72837650  0.35590153    -0.12700
C1448       C  0.57123952  0.71881000  0.36001753     0.04600
C1449       C  0.63226948  0.73763241  0.32715837     0.27000
C1450       C  0.65334744  0.72255814  0.33187766    -0.13400
C1451       C  0.67723696  0.72987015  0.32323146     0.05100
C1452       C  0.68005564  0.75134189  0.30842854    -0.09400
C1453       C  0.65969540  0.76798958  0.30695136     0.06000
C1454       C  0.63607793  0.76134428  0.31667243    -0.13700
Br1455     Br  0.61402107  0.74217025  0.38342380    -0.05800
Br1456     Br  0.54995404  0.69565400  0.28752589    -0.00200
Br1457     Br  0.70627484  0.71052324  0.33121596     0.00300
Br1458     Br  0.60860509  0.78438359  0.31520935    -0.04100
Br1459     Br  0.55782393  0.71917219  0.39376520     0.00400
Br1460     Br  0.60591212  0.71983642  0.27801893    -0.03400
Br1461     Br  0.64935562  0.69122267  0.34876184    -0.04300
Br1462     Br  0.66397726  0.79985643  0.29129657    -0.00300
C1463       C  0.95289125  0.31946807  0.79532607     0.01100
C1464       C  0.93146199  0.30945334  0.80706144     0.03900
C1465       C  0.90921399  0.30586974  0.79342768    -0.12100
C1466       C  0.90791335  0.31152618  0.76750046     0.23200
C1467       C  0.92906029  0.32240564  0.75598915    -0.12700
C1468       C  0.95119818  0.32653440  0.76982092     0.04600
C1469       C  0.88403121  0.30695937  0.75303409     0.27000
C1470       C  0.88224217  0.28771284  0.73505054    -0.13400
C1471       C  0.85894655  0.28173026  0.72422328     0.05100
C1472       C  0.83670875  0.29351820  0.73244668    -0.09400
C1473       C  0.83941297  0.31566659  0.74652979     0.06000
C1474       C  0.86280740  0.32214504  0.75690965    -0.13700
Br1475     Br  0.92711147  0.33341772  0.72164930    -0.05800
Br1476     Br  0.93236634  0.30059261  0.84218779    -0.00200
Br1477     Br  0.85799332  0.26020629  0.69546278     0.00300
Br1478     Br  0.86619336  0.35238782  0.77584949    -0.04100
Br1479     Br  0.97832832  0.34444253  0.75457703     0.00400
Br1480     Br  0.88000487  0.29447775  0.81101238    -0.03400
Br1481     Br  0.91169411  0.26973960  0.72477530    -0.04300
Br1482     Br  0.81218534  0.33894990  0.74878197    -0.00300
C1483       C  0.96106952  0.17558818  0.71255441     0.01100
C1484       C  0.95150267  0.16411591  0.73438844     0.03900
C1485       C  0.92736667  0.17028729  0.74351819    -0.12100
C1486       C  0.91200900  0.18696172  0.73010986     0.23200
C1487       C  0.92164990  0.19780520  0.70795230    -0.12700
C1488       C  0.94643664  0.19342683  0.70027753     0.04600
C1489       C  0.88584549  0.19284771  0.73899336     0.27000
C1490       C  0.86527596  0.17960291  0.72968383    -0.13400
C1491       C  0.84066955  0.18572410  0.73743958     0.05100
C1492       C  0.83598916  0.20683001  0.75282094    -0.09400
C1493       C  0.85686361  0.21769400  0.76471749     0.06000
C1494       C  0.88148219  0.21093153  0.75770722    -0.13700
Br1495     Br  0.90027517  0.21560780  0.68570807    -0.05800
Br1496     Br  0.97133184  0.13958350  0.75136897    -0.00200
Br1497     Br  0.81423971  0.16293463  0.72963812     0.00300
Br1498     Br  0.90941015  0.22633016  0.77401461    -0.04100
Br1499     Br  0.96048732  0.21150711  0.67234086     0.00400
Br1500     Br  0.91450990  0.15453187  0.77332971    -0.03400
Br1501     Br  0.87096225  0.15304914  0.70602036    -0.04300
Br1502     Br  0.85216471  0.23983734  0.79270978    -0.00300
C1503       C  0.75149968  0.21287606  0.82302200     0.01100
C1504       C  0.72571641  0.20869619  0.82763901     0.03900
C1505       C  0.71709186  0.20193457  0.85169759    -0.12100
C1506       C  0.73377395  0.19945484  0.87172060     0.28000
C1507       C  0.75948355  0.20258322  0.86719428    -0.12700
C1508       C  0.76826211  0.20959615  0.84307787     0.04600
C1509       C  0.72373401  0.19417705  0.89747236     0.27000
C1510       C  0.71251973  0.21337093  0.91167402    -0.13400
C1511       C  0.70066961  0.20821773  0.93478716     0.05100
C1512       C  0.69931460  0.18354635  0.94372462    -0.09400
C1513       C  0.71076273  0.16435161  0.92959889     0.06000
C1514       C  0.72288872  0.16967002  0.90662430    -0.13700
Br1515     Br  0.78260450  0.19688729  0.89408391    -0.05800
Br1516     Br  0.70094889  0.21392254  0.80221384    -0.00200
Br1517     Br  0.68494293  0.23504240  0.95319569     0.00300
Br1518     Br  0.73741422  0.14323353  0.88693260    -0.04100
Br1519     Br  0.80333451  0.21430860  0.83744310     0.00400
Br1520     Br  0.68197159  0.19625068  0.85757304    -0.03400
Br1521     Br  0.71182713  0.24658475  0.89848744    -0.04300
Br1522     Br  0.71051615  0.13071819  0.94192352    -0.00300
C1523       C  0.74639772  0.29653062  0.81850832     0.01100
C1524       C  0.72758341  0.29843928  0.83717909     0.03900
C1525       C  0.73338355  0.30634692  0.86188065    -0.12100
C1526       C  0.75811880  0.31194285  0.86848446     0.23200
C1527       C  0.77642083  0.31225044  0.84949154    -0.12700
C1528       C  0.77091790  0.30407835  0.82494910     0.04600
C1529       C  0.76556920  0.31612964  0.89539888     0.27000
C1530       C  0.76455274  0.33998994  0.90621219    -0.13400
C1531       C  0.77414429  0.34420735  0.93052912     0.05100
C1532       C  0.78575501  0.32479859  0.94414511    -0.09400
C1533       C  0.78591164  0.30068736  0.93365369     0.06000
C1534       C  0.77586657  0.29644530  0.90951059    -0.13700
Br1535     Br  0.80929812  0.32422591  0.85736052    -0.05800
Br1536     Br  0.69372547  0.29034761  0.82897038    -0.00200
Br1537     Br  0.77080025  0.37670301  0.94541417     0.00300
Br1538     Br  0.77762275  0.26382148  0.89486832    -0.04100
Br1539     Br  0.79841153  0.30092516  0.80170206     0.00400
Br1540     Br  0.70739302  0.31054917  0.88659201    -0.03400
Br1541     Br  0.75136830  0.36720815  0.88690142    -0.04300
Br1542     Br  0.80152951  0.27366661  0.95138087    -0.00300
C1543       C  0.55297375  0.17371368  0.78516153     0.01100
C1544       C  0.56022659  0.16125603  0.76297878     0.03900
C1545       C  0.58410999  0.16519656  0.75230398    -0.12100
C1546       C  0.60112339  0.18155616  0.76380715     0.23200
C1547       C  0.59424851  0.19266260  0.78694837    -0.12700
C1548       C  0.57027405  0.18902396  0.79732879     0.04600
C1549       C  0.62602005  0.18716368  0.75171380     0.27000
C1550       C  0.64807133  0.17584100  0.76034009    -0.13400
C1551       C  0.67156577  0.18256659  0.75013224     0.05100
C1552       C  0.67361325  0.20221429  0.73234746    -0.09400
C1553       C  0.65118686  0.21069771  0.72125876     0.06000
C1554       C  0.62768941  0.20348400  0.73105123    -0.13700
Br1555     Br  0.61806156  0.21152787  0.80560719    -0.05800
Br1556     Br  0.53769170  0.13789163  0.74797276    -0.00200
Br1557     Br  0.70021724  0.16278300  0.75906679     0.00300
Br1558     Br  0.59756193  0.21613953  0.71616865    -0.04100
Br1559     Br  0.56119344  0.20434931  0.82888446     0.00400
Br1560     Br  0.59411468  0.14701554  0.72273276    -0.03400
Br1561     Br  0.64594055  0.15106342  0.78641970    -0.04300
Br1562     Br  0.65217357  0.23028237  0.69107802    -0.00300
C1563       C  0.66938249  0.29258929  0.74135886     0.01100
C1564       C  0.64714041  0.28231725  0.75136592     0.03900
C1565       C  0.62359314  0.28852739  0.74125668    -0.12100
C1566       C  0.62151218  0.30603628  0.72170614     0.23200
C1567       C  0.64303531  0.31933326  0.71462941    -0.12700
C1568       C  0.66669302  0.31304309  0.72466581     0.04600
C1569       C  0.59678549  0.31014634  0.70880394     0.27000
C1570       C  0.59194570  0.29875197  0.68543126    -0.13400
C1571       C  0.56795053  0.29992657  0.67465060     0.05100
C1572       C  0.54845444  0.31305224  0.68666487    -0.09400
C1573       C  0.55354955  0.32555799  0.70936356     0.06000
C1574       C  0.57755340  0.32425722  0.72026623    -0.13700
Br1575     Br  0.63987665  0.34646705  0.69129087    -0.05800
Br1576     Br  0.64820227  0.26166542  0.78070546    -0.00200
Br1577     Br  0.56162615  0.28331495  0.64330844     0.00300
Br1578     Br  0.58456128  0.34278682  0.75031780    -0.04100
Br1579     Br  0.69458550  0.33429619  0.71712524     0.00400
Br1580     Br  0.59392772  0.27290424  0.75423831    -0.03400
Br1581     Br  0.61854351  0.28237845  0.66749324    -0.04300
Br1582     Br  0.52757519  0.34476497  0.72533129    -0.00300
C1583       C  0.75963789  0.29082585  0.65678306     0.01100
C1584       C  0.73486228  0.29688810  0.64973038     0.03900
C1585       C  0.72987368  0.30752667  0.62617328    -0.12100
C1586       C  0.74890047  0.31005756  0.60815581     0.23200
C1587       C  0.77362983  0.30442491  0.61491250    -0.12700
C1588       C  0.77902449  0.29512200  0.63921469     0.04600
C1589       C  0.74184224  0.31667583  0.58181483     0.27000
C1590       C  0.73116738  0.29838520  0.56631503    -0.13400
C1591       C  0.71832638  0.30518539  0.54431811     0.05100
C1592       C  0.71732467  0.33032419  0.53673555    -0.09400
C1593       C  0.73043501  0.34819781  0.55084118     0.06000
C1594       C  0.74190225  0.34156173  0.57367265    -0.13700
Br1595     Br  0.79995433  0.30985997  0.59083657    -0.05800
Br1596     Br  0.70660041  0.28796093  0.67031269    -0.00200
Br1597     Br  0.70005773  0.28015405  0.52631453     0.00300
Br1598     Br  0.75625039  0.36678661  0.59465290    -0.04100
Br1599     Br  0.81296843  0.28866532  0.64848968     0.00400
Br1600     Br  0.69661899  0.31886715  0.61831112    -0.03400
Br1601     Br  0.73299054  0.26398804  0.57618067    -0.04300
Br1602     Br  0.73323102  0.38175392  0.53856958    -0.00300
C1603       C  0.75711281  0.20517126  0.65862854     0.01100
C1604       C  0.78294947  0.20055695  0.65458830     0.03900
C1605       C  0.79212679  0.19395268  0.63062608    -0.12100
C1606       C  0.77608016  0.19278897  0.60995987     0.23200
C1607       C  0.75025183  0.19587324  0.61396270    -0.12700
C1608       C  0.74080978  0.20190908  0.63816318     0.04600
C1609       C  0.78704295  0.19018333  0.58406838     0.27000
C1610       C  0.79825595  0.21090518  0.57239879    -0.13400
C1611       C  0.81108437  0.20829963  0.54928481     0.05100
C1612       C  0.81350022  0.18476657  0.53791428    -0.09400
C1613       C  0.80252098  0.16399273  0.54967553     0.06000
C1614       C  0.78910693  0.16672749  0.57244687    -0.13700
Br1615     Br  0.72793976  0.19210574  0.58611100    -0.05800
Br1616     Br  0.80714990  0.20577302  0.68048958    -0.00200
Br1617     Br  0.82699805  0.23667531  0.53424126     0.00300
Br1618     Br  0.77489192  0.13807357  0.58859795    -0.04100
Br1619     Br  0.70545864  0.20545635  0.64333159     0.00400
Br1620     Br  0.82726862  0.18745624  0.62558985    -0.03400
Br1621     Br  0.79789339  0.24250281  0.58935214    -0.04300
Br1622     Br  0.80672339  0.13149114  0.53499310    -0.00300
C1623       C  0.29387205  0.76549702  0.84058375     0.01100
C1624       C  0.29421315  0.74693583  0.85947104     0.03900
C1625       C  0.30013191  0.75310352  0.88461926    -0.12100
C1626       C  0.30687585  0.77753271  0.89113020     0.23200
C1627       C  0.30876565  0.79550585  0.87212583    -0.12700
C1628       C  0.30197157  0.78976592  0.84724903     0.04600
C1629       C  0.31150702  0.78470788  0.91794199     0.27000
C1630       C  0.29266605  0.79646786  0.93232781    -0.13400
C1631       C  0.29716601  0.80405883  0.95724153     0.05100
C1632       C  0.32129993  0.80223370  0.96727438    -0.09400
C1633       C  0.34030254  0.79073217  0.95279535     0.06000
C1634       C  0.33524261  0.78146676  0.92854434    -0.13700
Br1635     Br  0.31970386  0.82858104  0.88069785    -0.05800
Br1636     Br  0.28470922  0.71336065  0.85196655    -0.00200
Br1637     Br  0.27048541  0.81846598  0.97694448     0.00300
Br1638     Br  0.36124943  0.76576757  0.90903186    -0.04100
Br1639     Br  0.30286659  0.81621589  0.82293998     0.00400
Br1640     Br  0.29761543  0.72844643  0.91071207    -0.03400
Br1641     Br  0.26156921  0.80501435  0.91699438    -0.04300
Br1642     Br  0.37352206  0.78793176  0.96601347    -0.00300
C1643       C  0.20706535  0.73608799  0.84208739     0.01100
C1644       C  0.18808771  0.71818051  0.84482892     0.03900
C1645       C  0.17826267  0.71227265  0.86886938    -0.12100
C1646       C  0.18759682  0.72388325  0.89058203     0.23200
C1647       C  0.20433204  0.74369961  0.88757411    -0.12700
C1648       C  0.21349012  0.75018865  0.86346177     0.04600
C1649       C  0.18156788  0.71415850  0.91648091     0.27000
C1650       C  0.16296892  0.72527888  0.93171778    -0.13400
C1651       C  0.15785619  0.71592386  0.95608485     0.05100
C1652       C  0.17201273  0.69609611  0.96601601    -0.09400
C1653       C  0.19120983  0.68567791  0.95115274     0.06000
C1654       C  0.19556344  0.69423559  0.92640501    -0.13700
Br1655     Br  0.21545487  0.76097158  0.91700927    -0.05800
Br1656     Br  0.17495941  0.70238373  0.81542580    -0.00200
Br1657     Br  0.13126129  0.73013449  0.97597073     0.00300
Br1658     Br  0.22034725  0.67814531  0.90562846    -0.04100
Br1659     Br  0.23440711  0.77868335  0.85985390     0.00400
Br1660     Br  0.15238762  0.68790344  0.87232637    -0.03400
Br1661     Br  0.14439478  0.75322635  0.91908900    -0.04300
Br1662     Br  0.21114291  0.65908074  0.96456582    -0.00300
C1663       C  0.20529526  0.82176579  0.75179332     0.01100
C1664       C  0.20903370  0.84345683  0.76652576     0.03900
C1665       C  0.20135510  0.86709083  0.75774152    -0.12100
C1666       C  0.18919318  0.86965067  0.73451075     0.23200
C1667       C  0.18377732  0.84818940  0.72061063    -0.12700
C1668       C  0.19221727  0.82458854  0.72866641     0.04600
C1669       C  0.18285598  0.89502121  0.72451790     0.27000
C1670       C  0.16141778  0.90786148  0.73292598    -0.13400
C1671       C  0.15703691  0.93269057  0.72531786     0.05100
C1672       C  0.17434842  0.94505084  0.70960233    -0.09400
C1673       C  0.19486781  0.93163788  0.70004917     0.06000
C1674       C  0.19840209  0.90656534  0.70656914    -0.13700
Br1675     Br  0.16486583  0.85145771  0.69003210    -0.05800
Br1676     Br  0.22449951  0.84152684  0.79909557    -0.00200
Br1677     Br  0.12708278  0.94953259  0.73604947     0.00300
Br1678     Br  0.22195722  0.88734745  0.68752280    -0.04100
Br1679     Br  0.18703834  0.79724744  0.70592182     0.00400
Br1680     Br  0.20781750  0.89639797  0.77747984    -0.03400
Br1681     Br  0.13686475  0.89034871  0.75257442    -0.04300
Br1682     Br  0.21710551  0.94692324  0.67601329    -0.00300
C1683       C  0.31541278  0.94940021  0.79013115     0.01100
C1684       C  0.32611010  0.94252577  0.76675243     0.03900
C1685       C  0.32297545  0.91809073  0.75689811    -0.12100
C1686       C  0.30982257  0.89974485  0.77064715     0.23200
C1687       C  0.29894249  0.90685783  0.79382686    -0.12700
C1688       C  0.30147993  0.93136684  0.80327280     0.04600
C1689       C  0.30547647  0.87369050  0.76023109     0.27000
C1690       C  0.28510234  0.86907054  0.74450991    -0.13400
C1691       C  0.27949552  0.84460694  0.73638499     0.05100
C1692       C  0.29184498  0.82355314  0.74671752    -0.09400
C1693       C  0.31416071  0.82845911  0.75996729     0.06000
C1694       C  0.32113041  0.85333712  0.76612490    -0.13700
Br1695     Br  0.28035845  0.88282131  0.81283184    -0.05800
Br1696     Br  0.34550372  0.96655028  0.74847058    -0.00200
Br1697     Br  0.25749518  0.84081581  0.70838139     0.00300
Br1698     Br  0.35258347  0.85993951  0.78173298    -0.04100
Br1699     Br  0.28558817  0.94051802  0.83449048     0.00400
Br1700     Br  0.33655646  0.90970877  0.72440590    -0.03400
Br1701     Br  0.26474423  0.89673455  0.73443560    -0.04300
Br1702     Br  0.33663990  0.80152103  0.76731869    -0.00300
C1703       C  0.29356201  0.74387826  0.66587754     0.01100
C1704       C  0.28418277  0.75625698  0.64439959     0.03900
C1705       C  0.28963480  0.74734450  0.61983995    -0.12100
C1706       C  0.30524515  0.72635769  0.61617849     0.23200
C1707       C  0.31842066  0.71734900  0.63712625    -0.12700
C1708       C  0.31304178  0.72627754  0.66168584     0.04600
C1709       C  0.30858571  0.71442442  0.59049614     0.27000
C1710       C  0.29806363  0.69087688  0.58511485    -0.13400
C1711       C  0.29979874  0.68046267  0.56082672     0.05100
C1712       C  0.31433903  0.69182978  0.54212772    -0.09400
C1713       C  0.32588481  0.71465653  0.54750243     0.06000
C1714       C  0.32286899  0.72601990  0.57139396    -0.13700
Br1715     Br  0.34470939  0.69333958  0.63178845    -0.05800
Br1716     Br  0.26591665  0.78697022  0.64821042    -0.00200
Br1717     Br  0.28205573  0.65036777  0.55289845     0.00300
Br1718     Br  0.34030698  0.75633850  0.57862485    -0.04100
Br1719     Br  0.33455340  0.71603305  0.68866666     0.00400
Br1720     Br  0.27597864  0.76445275  0.59125034    -0.03400
Br1721     Br  0.28405501  0.67064017  0.61119191    -0.04300
Br1722     Br  0.34631038  0.72995889  0.52208731    -0.00300
C1723       C  0.16970435  0.78434793  0.55552209     0.01100
C1724       C  0.18121736  0.79679864  0.57568694     0.03900
C1725       C  0.18511534  0.78454328  0.59884403    -0.12100
C1726       C  0.17811337  0.75947936  0.60200788     0.23200
C1727       C  0.16581990  0.74734394  0.58218544    -0.12700
C1728       C  0.16134364  0.75981026  0.55924858     0.04600
C1729       C  0.18540159  0.74567891  0.62543652     0.27000
C1730       C  0.20766371  0.73185145  0.62585113    -0.13400
C1731       C  0.21700231  0.72253112  0.64872041     0.05100
C1732       C  0.20462619  0.72752604  0.67173494    -0.09400
C1733       C  0.18016986  0.73744173  0.67048291     0.06000
C1734       C  0.17070295  0.74658441  0.64746632    -0.13700
Br1735     Br  0.15495688  0.71362071  0.58669355    -0.05800
Br1736     Br  0.19215806  0.83060150  0.57144851    -0.00200
Br1737     Br  0.24618964  0.70215694  0.64788251     0.00300
Br1738     Br  0.13736706  0.75961343  0.64572413    -0.04100
Br1739     Br  0.14238143  0.74383346  0.53336670     0.00400
Br1740     Br  0.19981815  0.80219267  0.62651518    -0.03400
Br1741     Br  0.22510286  0.72538513  0.59477340    -0.04300
Br1742     Br  0.15888383  0.73678322  0.69978385    -0.00300
C1743       C  0.29317267  0.65985800  0.75881434     0.01100
C1744       C  0.29655896  0.64135179  0.77746631     0.03900
C1745       C  0.30180744  0.61619477  0.77077369    -0.12100
C1746       C  0.30565096  0.60920240  0.74538362     0.23200
C1747       C  0.30355997  0.62773642  0.72689377    -0.12700
C1748       C  0.29604418  0.65219449  0.73324270     0.04600
C1749       C  0.31287484  0.58290527  0.73772214     0.27000
C1750       C  0.33721535  0.57391624  0.74200844    -0.13400
C1751       C  0.34517162  0.55074810  0.73207101     0.05100
C1752       C  0.32924435  0.53626288  0.71682811    -0.09400
C1753       C  0.30470716  0.54501035  0.71290160     0.06000
C1754       C  0.29648915  0.56784583  0.72359564    -0.13700
Br1755     Br  0.31186801  0.61967405  0.69238616    -0.05800
Br1756     Br  0.29564255  0.65046559  0.81240321    -0.00200
Br1757     Br  0.37834714  0.53905952  0.73949793     0.00300
Br1758     Br  0.26292955  0.57915664  0.71767901    -0.04100
Br1759     Br  0.28742458  0.67348169  0.70560282     0.00400
Br1760     Br  0.30385004  0.59114954  0.79651510    -0.03400
Br1761     Br  0.36048118  0.59424488  0.76014633    -0.04300
Br1762     Br  0.28299035  0.52715316  0.69063115    -0.00300
C1763       C  0.17402606  0.53653485  0.79850746     0.01100
C1764       C  0.19844535  0.54609508  0.79888446     0.03900
C1765       C  0.20402044  0.56923721  0.78762493    -0.12100
C1766       C  0.18498917  0.58462248  0.77785537     0.23200
C1767       C  0.16057156  0.57488190  0.77691206    -0.12700
C1768       C  0.15538716  0.55067640  0.78630398     0.04600
C1769       C  0.19070758  0.61170430  0.77213848     0.27000
C1770       C  0.19766935  0.62735527  0.79207389    -0.13400
C1771       C  0.20918627  0.65044286  0.78741977     0.05100
C1772       C  0.21028249  0.66076399  0.76290240    -0.09400
C1773       C  0.20138135  0.64581771  0.74292858     0.06000
C1774       C  0.19248684  0.62125980  0.74739689    -0.13700
Br1775     Br  0.13390993  0.59502020  0.76387963    -0.05800
Br1776     Br  0.22401149  0.52880199  0.81720052    -0.00200
Br1777     Br  0.22814089  0.66408169  0.81439300     0.00300
Br1778     Br  0.18389098  0.60040115  0.71942846    -0.04100
Br1779     Br  0.12293146  0.53643198  0.78156339     0.00400
Br1780     Br  0.23799206  0.58042480  0.78634334    -0.03400
Br1781     Br  0.19261916  0.61636790  0.82630361    -0.04300
Br1782     Br  0.20214480  0.65860169  0.70911964    -0.00300
loop_ 
_geom_bond_atom_site_label_1 
_geom_bond_atom_site_label_2 
_geom_bond_distance 
_geom_bond_site_symmetry_2 
_ccdc_geom_bond_type 
O1            C9   1.275       .  A
O1          Co21   2.043       .  S
O2           C10   1.261       .  A
O2          Co22   2.030       .  S
O3           C11   1.264       .  A
O3          Co23   1.895       .  S
O4           C12   1.254       .  A
O4          Co24   1.964       .  S
O5           C11   1.307       .  A
O5          Co22   2.141       .  S
O6           C12   1.273       .  A
O6          Co21   2.041       .  S
O7           C10   1.250       .  A
O7          Co24   1.971       .  S
O8            C9   1.277       .  A
O8          Co23   2.013       .  S
C9         C1772   1.524       .  S
C10        C1663   1.521       .  S
C11        C1643   1.507       .  S
C12        C1732   1.515       .  S
O13          C26   1.260       .  A
O13         Co21   1.981       .  S
O14          C27   1.261       .  A
O14         Co22   1.872       .  S
O15          C28   1.272       .  A
O15         Co23   2.067       .  S
O16          C29   1.278       .  A
O16         Co24   2.042       .  S
O17          C29   1.276       .  A
O17         Co22   2.016       .  S
O18          C28   1.254       .  A
O18         Co21   1.963       .  S
O19          C26   1.277       .  A
O19         Co24   2.055       .  S
O20          C27   1.311       .  A
O20         Co23   2.143       .  S
Co21         O25   2.082       .  S
Co22         O25   2.064       .  S
Co23         O25   2.078       .  S
Co24         O25   2.074       .  S
C26        C1703   1.529       .  S
C27        C1623   1.511       .  S
C28        C1743   1.533       .  S
C29        C1692   1.541       .  S
O30          C38   1.271       .  A
O30         Co50   2.060       .  S
O31          C39   1.271       .  A
O31         Co51   2.062       .  S
O32          C40   1.261       .  A
O32         Co52   1.982       .  S
O33          C41   1.255       .  A
O33         Co53   1.970       .  S
O34          C40   1.272       .  A
O34         Co51   2.046       .  S
O35          C41   1.275       .  A
O35         Co50   2.063       .  S
O36          C39   1.252       .  A
O36         Co53   1.957       .  S
O37          C38   1.253       .  A
O37         Co52   1.963       .  S
C38        C1603   1.508       .  S
C39        C1503   1.504       .  S
C40        C1492   1.526       .  S
C41        C1552   1.527       .  S
O42          C55   1.256       .  A
O42         Co50   1.976       .  S
O43          C56   1.261       .  A
O43         Co51   1.984       .  S
O44          C57   1.275       .  A
O44         Co52   2.071       .  S
O45          C58   1.273       .  A
O45         Co53   2.065       .  S
O46          C58   1.256       .  A
O46         Co51   1.965       .  S
O47          C57   1.254       .  A
O47         Co50   1.960       .  S
O48          C55   1.270       .  A
O48         Co53   2.052       .  S
O49          C56   1.270       .  A
O49         Co52   2.041       .  S
Co50         O54   2.143       .  S
Co51         O54   2.148       .  S
Co52         O54   2.142       .  S
Co53         O54   2.135       .  S
C55        C1563   1.528       .  S
C56        C1472   1.527       .  S
C57        C1583   1.505       .  S
C58        C1523   1.512       .  S
O59          C67   1.283       .  A
O59         Co79   2.017       .  S
O60          C68   1.274       .  A
O60         Co80   1.995       .  S
O61          C69   1.263       .  A
O61         Co81   2.054       .  S
O62          C70   1.287       .  A
O62         Co82   2.053       .  S
O63          C69   1.260       .  A
O63         Co80   1.997       .  S
O64          C70   1.287       .  A
O64         Co79   2.023       .  S
O65          C68   1.297       .  A
O65         Co82   2.069       .  S
O66          C67   1.269       .  A
O66         Co81   1.988       .  S
C67        C1423   1.494       .  S
C68        C1343   1.531       .  S
C69        C1332   1.513       .  S
C70        C1403   1.516       .  S
O71          C84   1.289       .  A
O71         Co79   2.070       .  S
O72          C85   1.306       .  A
O72         Co80   2.116       .  S
O73          C86   1.278       .  A
O73         Co81   2.006       .  S
O74          C87   1.273       .  A
O74         Co82   2.035       .  S
O75          C87   1.257       .  A
O75         Co80   1.980       .  S
O76          C86   1.275       .  A
O76         Co79   2.022       .  S
O77          C84   1.277       .  A
O77         Co82   1.935       .  S
O78          C85   1.277       .  A
O78         Co81   1.898       .  S
Co79         O83   2.117       .  S
Co80         O83   2.111       .  S
Co81         O83   1.964       .  S
Co82         O83   1.958       .  S
C84        C1392   1.513       .  S
C85        C1303   1.498       .  S
C86        C1452   1.500       .  S
C87        C1363   1.512       .  S
C88        C1283   1.539   1_545  S
C88          C89   1.443   1_554  A
C88          C93   1.444   1_545  A
C89        C1232   1.549       .  S
C89          C90   1.464       .  A
C90        C1252   1.528       .  S
C90          C91   1.465       .  A
C91        C1192   1.563       .  S
C91          C92   1.456   1_545  A
C92        C1212   1.540       .  S
C92          C93   1.449   1_556  A
C93        C1272   1.521       .  S
C94        C1323   1.509       .  S
C94          N95   1.360       .  A
C94          N99   1.375       .  A
N95          C96   1.359       .  A
C96        C1292   1.502       .  S
C96          N97   1.364   1_565  A
N97          C98   1.365       .  A
C98        C1163   1.511       .  S
C98          N99   1.374   1_545  A
C100       C1512   1.493       .  S
C100        N101   1.362       .  A
C100        N105   1.359       .  A
N101        C102   1.363       .  A
C102       C1223   1.506       .  S
C102        N103   1.362   1_556  A
N103        C104   1.362       .  A
C104       C1152   1.500       .  S
C104        N105   1.360   1_554  A
C106       C1683   1.515       .  S
C106        N107   1.365       .  A
C106        N111   1.380       .  A
N107        C108   1.362       .  A
C108       C1183   1.504       .  S
C108        N109   1.357   1_565  A
N109        C110   1.359       .  A
C110       C1132   1.517       .  S
C110        N111   1.379   1_545  A
C112       C1543   1.490       .  S
C112        N113   1.360       .  A
C112        N117   1.370       .  A
N113        C114   1.356       .  A
C114       C1243   1.469       .  S
C114        N115   1.350       .  A
N115        C116   1.356       .  A
C116       C1103   1.497       .  S
C116        N117   1.369       .  A
C118       C1432   1.489       .  S
C118        N119   1.363       .  A
C118        N123   1.357       .  A
N119        C120   1.365       .  A
C120       C1092   1.500       .  S
C120        N121   1.358       .  A
N121        C122   1.357       .  A
C122       C1263   1.488       .  S
C122        N123   1.357       .  A
C124       C1632   1.491       .  S
C124        N125   1.356       .  A
C124        N129   1.367   1_556  A
N125        C126   1.354   1_556  A
C126       C1203   1.473       .  S
C126        N127   1.359       .  A
N127        C128   1.361       .  A
C128       C1072   1.491       .  S
C128        N129   1.368       .  A
C130       C1023   1.553   1_554  S
C130        C131   1.467   1_554  A
C130        C135   1.456       .  A
C131       C1043   1.540       .  S
C131        C132   1.463   1_655  A
C132        C943   1.560       .  S
C132        C133   1.453   1_556  A
C133        C963   1.529       .  S
C133        C134   1.452   1_455  A
C134        C992   1.539       .  S
C134        C135   1.449       .  A
C135       C1003   1.544       .  S
C136       C1652   1.498       .  S
C136        N137   1.358       .  A
C136        N141   1.372   1_556  A
N137        C138   1.357   1_556  A
C138        C972   1.486       .  S
C138        N139   1.360       .  A
N139        C140   1.361       .  A
C140        C932   1.500       .  S
C140        N141   1.372       .  A
C142       C1763   1.513       .  S
C142        N143   1.368       .  A
C142        N147   1.372       .  A
N143        C144   1.367       .  A
C144        C952   1.500       .  S
C144        N145   1.360       .  A
N145        C146   1.361       .  A
C146        C903   1.505       .  S
C146        N147   1.369       .  A
C148       C1352   1.513       .  S
C148        N149   1.367       .  A
C148        N153   1.361       .  A
N149        C150   1.369   1_655  A
C150        C883   1.497       .  S
C150        N151   1.360       .  A
N151        C152   1.356       .  A
C152        C983   1.493       .  S
C152        N153   1.358   1_455  A
C154        C872   1.507       .  S
C154        N155   1.375       .  A
C154        N159   1.365       .  A
N155        C156   1.372       .  A
C156       C1412   1.510       .  S
C156        N157   1.358       .  A
N157        C158   1.356       .  A
C158       C1012   1.508       .  S
C158        N159   1.363       .  A
C160        C843   1.520       .  S
C160        N161   1.369   1_455  A
C160        N165   1.359       .  A
N161        C162   1.376       .  A
C162       C1463   1.508       .  S
C162        N163   1.365       .  A
N163        C164   1.357       .  A
C164       C1052   1.520       .  S
C164        N165   1.358   1_655  A
C166        C823   1.505       .  S
C166        N167   1.359       .  A
C166        N171   1.373   1_554  A
N167        C168   1.356   1_554  A
C168       C1032   1.483       .  S
C168        N169   1.358       .  A
N169        C170   1.362       .  A
C170       C1532   1.505       .  S
C170        N171   1.373       .  A
C172        C803   1.528       .  S
C172        C173   1.436       .  A
C172        C177   1.441       .  A
C173        C783   1.529       .  S
C173        C174   1.442       .  A
C174        C763   1.513       .  S
C174        C175   1.442       .  A
C175        C743   1.533       .  S
C175        C176   1.438       .  A
C176        C703   1.522       .  S
C176        C177   1.443       .  A
C177        C723   1.517       .  S
C178        C683   1.503       .  S
C178        N179   1.372       .  A
C178        N183   1.357       .  A
N179        C180   1.373       .  A
C180       C1572   1.502       .  S
C180        N181   1.364       .  A
N181        C182   1.362       .  A
C182        C812   1.486       .  S
C182        N183   1.353       .  A
C184        C663   1.476       .  S
C184        N185   1.367       .  A
C184        N189   1.350       .  A
N185        C186   1.368       .  A
C186       C1712   1.493       .  S
C186        N187   1.364       .  A
N187        C188   1.362       .  A
C188        C712   1.481       .  S
C188        N189   1.350       .  A
C190        C643   1.495       .  S
C190        N191   1.355       .  A
C190        N195   1.363       .  A
N191        C192   1.353       .  A
C192        C772   1.483       .  S
C192        N193   1.360       .  A
N193        C194   1.361       .  A
C194       C1383   1.491       .  S
C194        N195   1.365       .  A
C196        C623   1.522       .  S
C196        N197   1.376       .  A
C196        N201   1.365       .  A
N197        C198   1.376       .  A
C198       C1443   1.511       .  S
C198        N199   1.357       .  A
N199        C200   1.355       .  A
C200        C752   1.491       .  S
C200        N201   1.361       .  A
C202        C603   1.510       .  S
C202        N203   1.367       .  A
C202        N207   1.374       .  A
N203        C204   1.366       .  A
C204        C732   1.497       .  S
C204        N205   1.357       .  A
N205        C206   1.357       .  A
C206       C1752   1.513       .  S
C206        N207   1.373       .  A
C208        C583   1.494       .  S
C208        N209   1.363       .  A
C208        N213   1.363       .  A
N209        C210   1.365       .  A
C210        C792   1.498       .  S
C210        N211   1.360       .  A
N211        C212   1.361       .  A
C212       C1592   1.495       .  S
C212        N213   1.363       .  A
C214        C463   1.547       .  S
C214        C215   1.462       .  A
C214        C219   1.461   1_455  A
C215        C563   1.551       .  S
C215        C216   1.460       .  A
C216        C552   1.546       .  S
C216        C217   1.455   1_565  A
C217        C523   1.546       .  S
C217        C218   1.458   1_455  A
C218        C512   1.545       .  S
C218        C219   1.456   1_545  A
C219        C492   1.549       .  S
C220       C1483   1.491       .  S
C220        N221   1.361       .  A
C220        N225   1.371   1_655  A
N221        C222   1.356       .  A
C222        C532   1.477       .  S
C222        N223   1.355   1_655  A
N223        C224   1.357       .  A
C224        C452   1.493       .  S
C224        N225   1.371       .  A
C226        C423   1.512       .  S
C226        N227   1.362       .  A
C226        N231   1.369   1_545  A
N227        C228   1.358   1_545  A
C228        C543   1.493       .  S
C228        N229   1.356       .  A
N229        C230   1.356       .  A
C230       C1672   1.489       .  S
C230        N231   1.370       .  A
C232        C412   1.493       .  S
C232        N233   1.370       .  A
C232        N237   1.357       .  A
N233        C234   1.372       .  A
C234       C1723   1.499       .  S
C234        N235   1.362       .  A
N235        C236   1.360       .  A
C236        C572   1.478       .  S
C236        N237   1.355       .  A
C238       C1612   1.493       .  S
C238        N239   1.365       .  A
C238        N243   1.360       .  A
N239        C240   1.370       .  A
C240        C383   1.507       .  S
C240        N241   1.358       .  A
N241        C242   1.355       .  A
C242        C503   1.513       .  S
C242        N243   1.361       .  A
C244       C1312   1.478       .  S
C244        N245   1.358       .  A
C244        N249   1.360   1_565  A
N245        C246   1.357   1_565  A
C246        C483   1.480       .  S
C246        N247   1.360       .  A
N247        C248   1.362       .  A
C248        C363   1.482       .  S
C248        N249   1.361       .  A
C250       C1372   1.503       .  S
C250        N251   1.371       .  A
C250        N255   1.360       .  A
N251        C252   1.373   1_655  A
C252        C343   1.521       .  S
C252        N253   1.367       .  A
N253        C254   1.365   1_455  A
C254        C472   1.504       .  S
C254        N255   1.361       .  A
O256        C264   1.273       .  A
O256       Co276   2.001       .  S
O257        C265   1.269       .  A
O257       Co277   2.009       .  S
O258        C266   1.279       .  A
O258       Co278   2.044       .  S
O259        C267   1.267       .  A
O259       Co279   1.997       .  S
O260        C266   1.278       .  A
O260       Co277   2.014       .  S
O261        C267   1.287       .  A
O261       Co276   2.025       .  S
O262        C265   1.274       .  A
O262       Co279   2.057       .  S
O263        C264   1.267       .  A
O263       Co278   2.021       .  S
C264        C432   1.516       .  S
C265        C612   1.526       .  S
C266        C443   1.513       .  S
C267        C692   1.515       .  S
O268        C281   1.254       .  A
O268       Co276   1.971       .  S
O269        C282   1.261       .  A
O269       Co277   1.999       .  S
O270        C283   1.274       .  A
O270       Co278   1.996       .  S
O271        C284   1.269       .  A
O271       Co279   1.991       .  S
O272        C284   1.281       .  A
O272       Co277   2.062       .  S
O273        C283   1.283       .  A
O273       Co276   2.064       .  S
O274        C281   1.277       .  A
O274       Co279   2.016       .  S
O275        C282   1.270       .  A
O275       Co278   2.013       .  S
Co276       O280   2.138       .  S
Co277       O280   2.129       .  S
Co278       O280   2.133       .  S
Co279       O280   2.132       .  S
C281       C1112   1.495       .  S
C282        C852   1.517       .  S
C283       C1123   1.512       .  S
C284        C912   1.512       .  S
O285        C293   1.279       .  A
O285       Co305   2.050       .  S
O286        C294   1.298       .  A
O286       Co306   2.087       .  S
O287        C295   1.255       .  A
O287       Co307   1.990       .  S
O288        C296   1.272       .  A
O288       Co308   2.017       .  S
O289        C295   1.266       .  A
O289       Co306   2.005       .  S
O290        C296   1.258       .  A
O290       Co305   1.983       .  S
O291        C294   1.279       .  A
O291       Co308   1.929       .  S
O292        C293   1.254       .  A
O292       Co307   1.946       .  S
C293        C372   1.477       .  S
C294        C863   1.499       .  S
C295        C832   1.512       .  S
C296        C392   1.510       .  S
O297        C310   1.288       .  A
O297       Co305   2.024       .  S
O298        C311   1.273       .  A
O298       Co306   2.054       .  S
O299        C312   1.266       .  A
O299       Co307   1.989       .  S
O300        C313   1.258       .  A
O300       Co308   2.020       .  S
O301        C313   1.257       .  A
O301       Co306   1.976       .  S
O302        C312   1.286       .  A
O302       Co305   2.045       .  S
O303        C310   1.285       .  A
O303       Co308   2.040       .  S
O304        C311   1.253       .  A
O304       Co307   1.959       .  S
Co305       O309   2.132       .  S
Co306       O309   2.183       .  S
Co307       O309   2.000       .  S
Co308       O309   1.997       .  S
C310        C592   1.510       .  S
C311       C1143   1.514       .  S
C312       C1172   1.508       .  S
C313        C652   1.518       .  S
O314        C322   1.283       .  A
O314       Co334   2.032       .  S
O315        C323   1.264       .  A
O315       Co335   1.914       .  S
O316        C324   1.281       .  A
O316       Co336   2.043       .  S
O317        C325   1.273       .  A
O317       Co337   2.019       .  S
O318        C324   1.268       .  A
O318       Co335   1.978       .  S
O319        C325   1.274       .  A
O319       Co334   2.011       .  S
O320        C323   1.295       .  A
O320       Co337   2.116       .  S
O321        C322   1.264       .  A
O321       Co336   1.996       .  S
C322        C632   1.521       .  S
C323        C892   1.522       .  S
C324        C672   1.490       .  S
C325        C923   1.504       .  S
O326        C339   1.279       .  A
O326       Co334   2.030       .  S
O327        C340   1.267       .  A
O327       Co335   2.020       .  S
O328        C341   1.279       .  A
O328       Co336   2.007       .  S
O329        C342   1.273       .  A
O329       Co337   1.940       .  S
O330        C342   1.298       .  A
O330       Co335   2.115       .  S
O331        C341   1.268       .  A
O331       Co334   1.998       .  S
O332        C339   1.275       .  A
O332       Co337   1.997       .  S
O333        C340   1.265       .  A
O333       Co336   2.004       .  S
Co334       O338   2.072       .  S
Co335       O338   2.045       .  S
Co336       O338   2.067       .  S
Co337       O338   2.048       .  S
C339       C1063   1.496       .  S
C340        C403   1.507       .  S
C341       C1083   1.503       .  S
C342        C352   1.541       .  S
C343        C344   1.419       .  A
C343        C348   1.424       .  A
C344        C345   1.421       .  A
C344       Br356   1.928       .  S
C345        C346   1.415       .  A
C345       Br360   1.925       .  S
C346        C349   1.521       .  S
C346        C347   1.412       .  A
C347        C348   1.423       .  A
C347       Br355   1.928       .  S
C348       Br359   1.930       .  S
C349        C350   1.404       .  A
C349        C354   1.415       .  A
C350        C351   1.415       .  A
C350       Br361   1.936       .  S
C351        C352   1.432       .  A
C351       Br357   1.923       .  S
C352        C353   1.433       .  A
C353        C354   1.431       .  A
C353       Br362   1.932       .  S
C354       Br358   1.929       .  S
C363        C364   1.411       .  A
C363        C368   1.411       .  A
C364        C365   1.409       .  A
C364       Br376   1.930       .  S
C365        C366   1.412       .  A
C365       Br380   1.928       .  S
C366        C369   1.488       .  S
C366        C367   1.408       .  A
C367        C368   1.409       .  A
C367       Br375   1.929       .  S
C368       Br379   1.926       .  S
C369        C370   1.408       .  A
C369        C374   1.413       .  A
C370        C371   1.404       .  A
C370       Br381   1.926       .  S
C371        C372   1.405       .  A
C371       Br377   1.920       .  S
C372        C373   1.404       .  A
C373        C374   1.409       .  A
C373       Br382   1.922       .  S
C374       Br378   1.925       .  S
C383        C384   1.424       .  A
C383        C388   1.420       .  A
C384        C385   1.411       .  A
C384       Br396   1.937       .  S
C385        C386   1.410       .  A
C385       Br400   1.934       .  S
C386        C389   1.504       .  S
C386        C387   1.413       .  A
C387        C388   1.418       .  A
C387       Br395   1.932       .  S
C388       Br399   1.930       .  S
C389        C390   1.415       .  A
C389        C394   1.406       .  A
C390        C391   1.422       .  A
C390       Br401   1.926       .  S
C391        C392   1.417       .  A
C391       Br397   1.925       .  S
C392        C393   1.422       .  A
C393        C394   1.405       .  A
C393       Br402   1.928       .  S
C394       Br398   1.937       .  S
C403        C404   1.413       .  A
C403        C408   1.411       .  A
C404        C405   1.412       .  A
C404       Br416   1.914       .  S
C405        C406   1.409       .  A
C405       Br420   1.931       .  S
C406        C409   1.508       .  S
C406        C407   1.417       .  A
C407        C408   1.421       .  A
C407       Br415   1.926       .  S
C408       Br419   1.925       .  S
C409        C410   1.413       .  A
C409        C414   1.415       .  A
C410        C411   1.415       .  A
C410       Br421   1.929       .  S
C411        C412   1.411       .  A
C411       Br417   1.927       .  S
C412        C413   1.411       .  A
C413        C414   1.417       .  A
C413       Br422   1.929       .  S
C414       Br418   1.928       .  S
C423        C424   1.422       .  A
C423        C428   1.419       .  A
C424        C425   1.415       .  A
C424       Br436   1.933       .  S
C425        C426   1.408       .  A
C425       Br440   1.926       .  S
C426        C429   1.511       .  S
C426        C427   1.412       .  A
C427        C428   1.418       .  A
C427       Br435   1.919       .  S
C428       Br439   1.931       .  S
C429        C430   1.413       .  A
C429        C434   1.408       .  A
C430        C431   1.425       .  A
C430       Br441   1.929       .  S
C431        C432   1.421       .  A
C431       Br437   1.925       .  S
C432        C433   1.420       .  A
C433        C434   1.414       .  A
C433       Br442   1.922       .  S
C434       Br438   1.933       .  S
C443        C444   1.413       .  A
C443        C448   1.414       .  A
C444        C445   1.407       .  A
C444       Br456   1.903       .  S
C445        C446   1.404       .  A
C445       Br460   1.934       .  S
C446        C449   1.507       .  S
C446        C447   1.418       .  A
C447        C448   1.427       .  A
C447       Br455   1.924       .  S
C448       Br459   1.923       .  S
C449        C450   1.416       .  A
C449        C454   1.413       .  A
C450        C451   1.415       .  A
C450       Br461   1.923       .  S
C451        C452   1.409       .  A
C451       Br457   1.929       .  S
C452        C453   1.413       .  A
C453        C454   1.416       .  A
C453       Br462   1.929       .  S
C454       Br458   1.927       .  S
C463        C464   1.433       .  A
C463        C468   1.433   1_455  A
C464        C465   1.416       .  A
C464       Br476   1.922       .  S
C465        C466   1.404       .  A
C465       Br480   1.937       .  S
C466        C469   1.500       .  S
C466        C467   1.402   1_455  A
C467        C468   1.415       .  A
C467       Br475   1.935       .  S
C468       Br479   1.920       .  S
C469        C470   1.406   1_455  A
C469        C474   1.411       .  A
C470        C471   1.409       .  A
C470       Br481   1.931       .  S
C471        C472   1.419       .  A
C471       Br477   1.921       .  S
C472        C473   1.419   1_655  A
C473        C474   1.417       .  A
C473       Br482   1.931       .  S
C474       Br478   1.925       .  S
C483        C484   1.409   1_545  A
C483        C488   1.408       .  A
C484        C485   1.412       .  A
C484       Br496   1.929       .  S
C485        C486   1.412   1_565  A
C485       Br500   1.929       .  S
C486        C489   1.498       .  S
C486        C487   1.412       .  A
C487        C488   1.410       .  A
C487       Br495   1.924       .  S
C488       Br499   1.930       .  S
C489        C490   1.402   1_545  A
C489        C494   1.401       .  A
C490        C491   1.415       .  A
C490       Br501   1.934       .  S
C491        C492   1.432       .  A
C491       Br497   1.918       .  S
C492        C493   1.436   1_565  A
C493        C494   1.415       .  A
C493       Br502   1.919       .  S
C494       Br498   1.937       .  S
C503        C504   1.427       .  A
C503        C508   1.427       .  A
C504        C505   1.410       .  A
C504       Br516   1.936       .  S
C505        C506   1.405       .  A
C505       Br520   1.933       .  S
C506        C509   1.495       .  S
C506        C507   1.409       .  A
C507        C508   1.412       .  A
C507       Br515   1.935       .  S
C508       Br519   1.936       .  S
C509        C510   1.400       .  A
C509        C514   1.403       .  A
C510        C511   1.412       .  A
C510       Br521   1.939       .  S
C511        C512   1.436       .  A
C511       Br517   1.917       .  S
C512        C513   1.430       .  A
C513        C514   1.412       .  A
C513       Br522   1.923   1_655  S
C514       Br518   1.933       .  S
C523        C524   1.431   1_455  A
C523        C528   1.436       .  A
C524        C525   1.415       .  A
C524       Br536   1.924       .  S
C525        C526   1.401       .  A
C525       Br540   1.933       .  S
C526        C529   1.495       .  S
C526        C527   1.401   1_655  A
C527        C528   1.414       .  A
C527       Br535   1.939       .  S
C528       Br539   1.920       .  S
C529        C530   1.411       .  A
C529        C534   1.410   1_655  A
C530        C531   1.411       .  A
C530       Br541   1.924       .  S
C531        C532   1.410       .  A
C531       Br537   1.929       .  S
C532        C533   1.407   1_655  A
C533        C534   1.407       .  A
C533       Br542   1.930       .  S
C534       Br538   1.922       .  S
C543        C544   1.416   1_565  A
C543        C548   1.420       .  A
C544        C545   1.411       .  A
C544       Br556   1.933       .  S
C545        C546   1.410   1_545  A
C545       Br560   1.927       .  S
C546        C549   1.496       .  S
C546        C547   1.407       .  A
C547        C548   1.409       .  A
C547       Br555   1.930       .  S
C548       Br559   1.935       .  S
C549        C550   1.400       .  A
C549        C554   1.401       .  A
C550        C551   1.415       .  A
C550       Br561   1.937       .  S
C551        C552   1.436       .  A
C551       Br557   1.922   1_455  S
C552        C553   1.431       .  A
C553        C554   1.415       .  A
C553       Br562   1.919   1_565  S
C554       Br558   1.936   1_565  S
C563        C564   1.436       .  A
C563        C568   1.434       .  A
C564        C565   1.414       .  A
C564       Br576   1.915       .  S
C565        C566   1.399       .  A
C565       Br580   1.938       .  S
C566        C569   1.496       .  S
C566        C567   1.402       .  A
C567        C568   1.415       .  A
C567       Br575   1.936       .  S
C568       Br579   1.920       .  S
C569        C570   1.411       .  A
C569        C574   1.414       .  A
C570        C571   1.409       .  A
C570       Br581   1.929       .  S
C571        C572   1.408       .  A
C571       Br577   1.928       .  S
C572        C573   1.409       .  A
C573        C574   1.412       .  A
C573       Br582   1.930       .  S
C574       Br578   1.928       .  S
C583        C584   1.410       .  A
C583        C588   1.413       .  A
C584        C585   1.414       .  A
C584       Br596   1.930       .  S
C585        C586   1.414       .  A
C585       Br600   1.929       .  S
C586        C589   1.507       .  S
C586        C587   1.414       .  A
C587        C588   1.418       .  A
C587       Br595   1.927       .  S
C588       Br599   1.929       .  S
C589        C590   1.414       .  A
C589        C594   1.408       .  A
C590        C591   1.420       .  A
C590       Br601   1.926       .  S
C591        C592   1.412       .  A
C591       Br597   1.923       .  S
C592        C593   1.418       .  A
C593        C594   1.415       .  A
C593       Br602   1.915       .  S
C594       Br598   1.933       .  S
C603        C604   1.416       .  A
C603        C608   1.412       .  A
C604        C605   1.426       .  A
C604       Br616   1.928       .  S
C605        C606   1.418       .  A
C605       Br620   1.927       .  S
C606        C609   1.521       .  S
C606        C607   1.414       .  A
C607        C608   1.419       .  A
C607       Br615   1.926       .  S
C608       Br619   1.926       .  S
C609        C610   1.408       .  A
C609        C614   1.418       .  A
C610        C611   1.416       .  A
C610       Br621   1.929       .  S
C611        C612   1.415       .  A
C611       Br617   1.908       .  S
C612        C613   1.415       .  A
C613        C614   1.429       .  A
C613       Br622   1.923       .  S
C614       Br618   1.924       .  S
C623        C624   1.424       .  A
C623        C628   1.421       .  A
C624        C625   1.420       .  A
C624       Br636   1.932       .  S
C625        C626   1.410       .  A
C625       Br640   1.929       .  S
C626        C629   1.519       .  S
C626        C627   1.415       .  A
C627        C628   1.425       .  A
C627       Br635   1.929       .  S
C628       Br639   1.929       .  S
C629        C630   1.417       .  A
C629        C634   1.407       .  A
C630        C631   1.429       .  A
C630       Br641   1.926       .  S
C631        C632   1.420       .  A
C631       Br637   1.927       .  S
C632        C633   1.423       .  A
C633        C634   1.415       .  A
C633       Br642   1.918       .  S
C634       Br638   1.934       .  S
C643        C644   1.417       .  A
C643        C648   1.419       .  A
C644        C645   1.413       .  A
C644       Br656   1.934       .  S
C645        C646   1.412       .  A
C645       Br660   1.924       .  S
C646        C649   1.497       .  S
C646        C647   1.407       .  A
C647        C648   1.408       .  A
C647       Br655   1.932       .  S
C648       Br659   1.934       .  S
C649        C650   1.408       .  A
C649        C654   1.404       .  A
C650        C651   1.415       .  A
C650       Br661   1.931       .  S
C651        C652   1.424       .  A
C651       Br657   1.929       .  S
C652        C653   1.434       .  A
C653        C654   1.411       .  A
C653       Br662   1.934       .  S
C654       Br658   1.939       .  S
C663        C664   1.412       .  A
C663        C668   1.405       .  A
C664        C665   1.413       .  A
C664       Br676   1.928       .  S
C665        C666   1.411       .  A
C665       Br680   1.928       .  S
C666        C669   1.493       .  S
C666        C667   1.411       .  A
C667        C668   1.405       .  A
C667       Br675   1.918       .  S
C668       Br679   1.931       .  S
C669        C670   1.414       .  A
C669        C674   1.406       .  A
C670        C671   1.415       .  A
C670       Br681   1.926       .  S
C671        C672   1.408       .  A
C671       Br677   1.926       .  S
C672        C673   1.414       .  A
C673        C674   1.407       .  A
C673       Br682   1.921       .  S
C674       Br678   1.931       .  S
C683        C684   1.414       .  A
C683        C688   1.420       .  A
C684        C685   1.418       .  A
C684       Br696   1.930       .  S
C685        C686   1.418       .  A
C685       Br700   1.930       .  S
C686        C689   1.508       .  S
C686        C687   1.410       .  A
C687        C688   1.414       .  A
C687       Br695   1.930       .  S
C688       Br699   1.932       .  S
C689        C690   1.415       .  A
C689        C694   1.404       .  A
C690        C691   1.425       .  A
C690       Br701   1.928       .  S
C691        C692   1.420       .  A
C691       Br697   1.925       .  S
C692        C693   1.430       .  A
C693        C694   1.407       .  A
C693       Br702   1.930       .  S
C694       Br698   1.938       .  S
C703        C704   1.424       .  A
C703        C708   1.426       .  A
C704        C705   1.407       .  A
C704       Br716   1.904       .  S
C705        C706   1.399       .  A
C705       Br720   1.938       .  S
C706        C709   1.485       .  S
C706        C707   1.402       .  A
C707        C708   1.413       .  A
C707       Br715   1.930       .  S
C708       Br719   1.926       .  S
C709        C710   1.408       .  A
C709        C714   1.406       .  A
C710        C711   1.406       .  A
C710       Br721   1.928       .  S
C711        C712   1.410       .  A
C711       Br717   1.928       .  S
C712        C713   1.417       .  A
C713        C714   1.408       .  A
C713       Br722   1.934       .  S
C714       Br718   1.926       .  S
C723        C724   1.421       .  A
C723        C728   1.424       .  A
C724        C725   1.403       .  A
C724       Br736   1.906       .  S
C725        C726   1.402       .  A
C725       Br740   1.942       .  S
C726        C729   1.489       .  S
C726        C727   1.405       .  A
C727        C728   1.415       .  A
C727       Br735   1.927       .  S
C728       Br739   1.929       .  S
C729        C730   1.405       .  A
C729        C734   1.405       .  A
C730        C731   1.408       .  A
C730       Br741   1.932       .  S
C731        C732   1.420       .  A
C731       Br737   1.931       .  S
C732        C733   1.419       .  A
C733        C734   1.414       .  A
C733       Br742   1.926       .  S
C734       Br738   1.928       .  S
C743        C744   1.426       .  A
C743        C748   1.427       .  A
C744        C745   1.410       .  A
C744       Br756   1.905       .  S
C745        C746   1.401       .  A
C745       Br760   1.939       .  S
C746        C749   1.498       .  S
C746        C747   1.405       .  A
C747        C748   1.419       .  A
C747       Br755   1.928       .  S
C748       Br759   1.927       .  S
C749        C750   1.409       .  A
C749        C754   1.410       .  A
C750        C751   1.410       .  A
C750       Br761   1.929       .  S
C751        C752   1.415       .  A
C751       Br757   1.931       .  S
C752        C753   1.414       .  A
C753        C754   1.414       .  A
C753       Br762   1.930       .  S
C754       Br758   1.923       .  S
C763        C764   1.424       .  A
C763        C768   1.422       .  A
C764        C765   1.410       .  A
C764       Br776   1.926       .  S
C765        C766   1.400       .  A
C765       Br780   1.929       .  S
C766        C769   1.481       .  S
C766        C767   1.401       .  A
C767        C768   1.405       .  A
C767       Br775   1.941       .  S
C768       Br779   1.906       .  S
C769        C770   1.404       .  A
C769        C774   1.406       .  A
C770        C771   1.407       .  A
C770       Br781   1.926       .  S
C771        C772   1.419       .  A
C771       Br777   1.933       .  S
C772        C773   1.414       .  A
C773        C774   1.406       .  A
C773       Br782   1.930       .  S
C774       Br778   1.930       .  S
C783        C784   1.426       .  A
C783        C788   1.425       .  A
C784        C785   1.412       .  A
C784       Br796   1.909       .  S
C785        C786   1.403       .  A
C785       Br800   1.939       .  S
C786        C789   1.497       .  S
C786        C787   1.405       .  A
C787        C788   1.416       .  A
C787       Br795   1.930       .  S
C788       Br799   1.929       .  S
C789        C790   1.409       .  A
C789        C794   1.407       .  A
C790        C791   1.414       .  A
C790       Br801   1.931       .  S
C791        C792   1.420       .  A
C791       Br797   1.931       .  S
C792        C793   1.417       .  A
C793        C794   1.412       .  A
C793       Br802   1.931       .  S
C794       Br798   1.927       .  S
C803        C804   1.424       .  A
C803        C808   1.427       .  A
C804        C805   1.408       .  A
C804       Br816   1.904       .  S
C805        C806   1.402       .  A
C805       Br820   1.942       .  S
C806        C809   1.491       .  S
C806        C807   1.404       .  A
C807        C808   1.416       .  A
C807       Br815   1.930       .  S
C808       Br819   1.925       .  S
C809        C810   1.409       .  A
C809        C814   1.408       .  A
C810        C811   1.410       .  A
C810       Br821   1.929       .  S
C811        C812   1.412       .  A
C811       Br817   1.927       .  S
C812        C813   1.414       .  A
C813        C814   1.410       .  A
C813       Br822   1.930       .  S
C814       Br818   1.927       .  S
C823        C824   1.420       .  A
C823        C828   1.413       .  A
C824        C825   1.417       .  A
C824       Br836   1.931       .  S
C825        C826   1.411       .  A
C825       Br840   1.930       .  S
C826        C829   1.512       .  S
C826        C827   1.415       .  A
C827        C828   1.418       .  A
C827       Br835   1.924       .  S
C828       Br839   1.929       .  S
C829        C830   1.413       .  A
C829        C834   1.411       .  A
C830        C831   1.419       .  A
C830       Br841   1.932       .  S
C831        C832   1.423       .  A
C831       Br837   1.933       .  S
C832        C833   1.423       .  A
C833        C834   1.415       .  A
C833       Br842   1.933       .  S
C834       Br838   1.931       .  S
C843        C844   1.423       .  A
C843        C848   1.422       .  A
C844        C845   1.413       .  A
C844       Br856   1.936       .  S
C845        C846   1.410       .  A
C845       Br860   1.932       .  S
C846        C849   1.514       .  S
C846        C847   1.415       .  A
C847        C848   1.424       .  A
C847       Br855   1.929       .  S
C848       Br859   1.928       .  S
C849        C850   1.407       .  A
C849        C854   1.419       .  A
C850        C851   1.407       .  A
C850       Br861   1.936       .  S
C851        C852   1.421       .  A
C851       Br857   1.929       .  S
C852        C853   1.420       .  A
C853        C854   1.427       .  A
C853       Br862   1.928       .  S
C854       Br858   1.926       .  S
C863        C864   1.410       .  A
C863        C868   1.413       .  A
C864        C865   1.411       .  A
C864       Br876   1.930       .  S
C865        C866   1.412       .  A
C865       Br880   1.925       .  S
C866        C869   1.508       .  S
C866        C867   1.415       .  A
C867        C868   1.419       .  A
C867       Br875   1.925       .  S
C868       Br879   1.922       .  S
C869        C870   1.411       .  A
C869        C874   1.413       .  A
C870        C871   1.419       .  A
C870       Br881   1.929       .  S
C871        C872   1.417       .  A
C871       Br877   1.926       .  S
C872        C873   1.415       .  A
C873        C874   1.419       .  A
C873       Br882   1.927       .  S
C874       Br878   1.931       .  S
C883        C884   1.415       .  A
C883        C888   1.419       .  A
C884        C885   1.413       .  A
C884       Br896   1.932       .  S
C885        C886   1.413       .  A
C885       Br900   1.928       .  S
C886        C889   1.502       .  S
C886        C887   1.409       .  A
C887        C888   1.414       .  A
C887       Br895   1.931       .  S
C888       Br899   1.930       .  S
C889        C890   1.403       .  A
C889        C894   1.408       .  A
C890        C891   1.411       .  A
C890       Br901   1.934       .  S
C891        C892   1.430       .  A
C891       Br897   1.926       .  S
C892        C893   1.429       .  A
C893        C894   1.418       .  A
C893       Br902   1.932       .  S
C894       Br898   1.932       .  S
C903        C904   1.412       .  A
C903        C908   1.416       .  A
C904        C905   1.419       .  A
C904       Br916   1.929       .  S
C905        C906   1.416       .  A
C905       Br920   1.923       .  S
C906        C909   1.515       .  S
C906        C907   1.413       .  A
C907        C908   1.419       .  A
C907       Br915   1.927       .  S
C908       Br919   1.929       .  S
C909        C910   1.414       .  A
C909        C914   1.411       .  A
C910        C911   1.420       .  A
C910       Br921   1.923       .  S
C911        C912   1.410       .  A
C911       Br917   1.917       .  S
C912        C913   1.416       .  A
C913        C914   1.419       .  A
C913       Br922   1.923       .  S
C914       Br918   1.927       .  S
C923        C924   1.409       .  A
C923        C928   1.413       .  A
C924        C925   1.420       .  A
C924       Br936   1.926       .  S
C925        C926   1.416       .  A
C925       Br940   1.923       .  S
C926        C929   1.512       .  S
C926        C927   1.412       .  A
C927        C928   1.416       .  A
C927       Br935   1.929       .  S
C928       Br939   1.921       .  S
C929        C930   1.414       .  A
C929        C934   1.414       .  A
C930        C931   1.420       .  A
C930       Br941   1.926       .  S
C931        C932   1.414       .  A
C931       Br937   1.928       .  S
C932        C933   1.412       .  A
C933        C934   1.417       .  A
C933       Br942   1.927       .  S
C934       Br938   1.927       .  S
C943        C944   1.430       .  A
C943        C948   1.439       .  A
C944        C945   1.423       .  A
C944       Br956   1.919       .  S
C945        C946   1.406       .  A
C945       Br960   1.930       .  S
C946        C949   1.514       .  S
C946        C947   1.403       .  A
C947        C948   1.421       .  A
C947       Br955   1.940       .  S
C948       Br959   1.916       .  S
C949        C950   1.415       .  A
C949        C954   1.413       .  A
C950        C951   1.419       .  A
C950       Br961   1.926       .  S
C951        C952   1.413       .  A
C951       Br957   1.929       .  S
C952        C953   1.413       .  A
C953        C954   1.417       .  A
C953       Br962   1.929       .  S
C954       Br958   1.924       .  S
C963        C964   1.427       .  A
C963        C968   1.426       .  A
C964        C965   1.417       .  A
C964       Br976   1.933   1_454  S
C965        C966   1.407       .  A
C965       Br980   1.930   1_554  S
C966        C969   1.498       .  S
C966        C967   1.404       .  A
C967        C968   1.408       .  A
C967       Br975   1.939       .  S
C968       Br979   1.916       .  S
C969        C970   1.413   1_554  A
C969        C974   1.412       .  A
C970        C971   1.408       .  A
C970       Br981   1.932       .  S
C971        C972   1.412   1_556  A
C971       Br977   1.931       .  S
C972        C973   1.412       .  A
C973        C974   1.413       .  A
C973       Br982   1.930       .  S
C974       Br978   1.924       .  S
C983        C984   1.418       .  A
C983        C988   1.414   1_455  A
C984        C985   1.413       .  A
C984       Br996   1.934       .  S
C985        C986   1.410       .  A
C985      Br1000   1.926       .  S
C986        C989   1.501       .  S
C986        C987   1.412   1_455  A
C987        C988   1.411       .  A
C987       Br995   1.928       .  S
C988       Br999   1.932       .  S
C989        C990   1.405   1_455  A
C989        C994   1.406       .  A
C990        C991   1.413       .  A
C990      Br1001   1.942       .  S
C991        C992   1.431       .  A
C991       Br997   1.914       .  S
C992        C993   1.429   1_655  A
C993        C994   1.417       .  A
C993      Br1002   1.930       .  S
C994       Br998   1.932       .  S
C1003      C1004   1.430       .  A
C1003      C1008   1.435       .  A
C1004      C1005   1.416       .  A
C1004     Br1016   1.921       .  S
C1005      C1006   1.402       .  A
C1005     Br1020   1.933       .  S
C1006      C1009   1.497       .  S
C1006      C1007   1.400       .  A
C1007      C1008   1.414       .  A
C1007     Br1015   1.939       .  S
C1008     Br1019   1.919       .  S
C1009      C1010   1.406       .  A
C1009      C1014   1.407       .  A
C1010      C1011   1.413       .  A
C1010     Br1021   1.933       .  S
C1011      C1012   1.427       .  A
C1011     Br1017   1.936       .  S
C1012      C1013   1.422       .  A
C1013      C1014   1.414       .  A
C1013     Br1022   1.932       .  S
C1014     Br1018   1.930       .  S
C1023      C1024   1.434       .  A
C1023      C1028   1.437   1_556  A
C1024      C1025   1.418       .  A
C1024     Br1036   1.918       .  S
C1025      C1026   1.401       .  A
C1025     Br1040   1.934       .  S
C1026      C1029   1.497       .  S
C1026      C1027   1.399   1_556  A
C1027      C1028   1.415       .  A
C1027     Br1035   1.941       .  S
C1028     Br1039   1.915       .  S
C1029      C1030   1.411       .  A
C1029      C1034   1.411       .  A
C1030      C1031   1.410       .  A
C1030     Br1041   1.925   1_556  S
C1031      C1032   1.410       .  A
C1031     Br1037   1.931   1_556  S
C1032      C1033   1.411       .  A
C1033      C1034   1.411       .  A
C1033     Br1042   1.929       .  S
C1034     Br1038   1.925       .  S
C1043      C1044   1.433       .  A
C1043      C1048   1.427       .  A
C1044      C1045   1.416       .  A
C1044     Br1056   1.918       .  S
C1045      C1046   1.404       .  A
C1045     Br1060   1.939       .  S
C1046      C1049   1.499       .  S
C1046      C1047   1.404       .  A
C1047      C1048   1.411       .  A
C1047     Br1055   1.937       .  S
C1048     Br1059   1.916   1_656  S
C1049      C1050   1.409       .  A
C1049      C1054   1.405   1_655  A
C1050      C1051   1.417       .  A
C1050     Br1061   1.935       .  S
C1051      C1052   1.431       .  A
C1051     Br1057   1.934       .  S
C1052      C1053   1.427   1_655  A
C1053      C1054   1.409       .  A
C1053     Br1062   1.936       .  S
C1054     Br1058   1.936       .  S
C1063      C1064   1.412       .  A
C1063      C1068   1.408       .  A
C1064      C1065   1.412       .  A
C1064     Br1076   1.922       .  S
C1065      C1066   1.411       .  A
C1065     Br1080   1.929       .  S
C1066      C1069   1.504       .  S
C1066      C1067   1.415       .  A
C1067      C1068   1.417       .  A
C1067     Br1075   1.927       .  S
C1068     Br1079   1.924       .  S
C1069      C1070   1.414       .  A
C1069      C1074   1.412       .  A
C1070      C1071   1.413       .  A
C1070     Br1081   1.925       .  S
C1071      C1072   1.409       .  A
C1071     Br1077   1.930       .  S
C1072      C1073   1.414       .  A
C1073      C1074   1.415       .  A
C1073     Br1082   1.929       .  S
C1074     Br1078   1.929       .  S
C1083      C1084   1.421       .  A
C1083      C1088   1.424       .  A
C1084      C1085   1.420       .  A
C1084     Br1096   1.930       .  S
C1085      C1086   1.411       .  A
C1085     Br1100   1.930       .  S
C1086      C1089   1.496       .  S
C1086      C1087   1.404       .  A
C1087      C1088   1.406       .  A
C1087     Br1095   1.935       .  S
C1088     Br1099   1.931       .  S
C1089      C1090   1.407       .  A
C1089      C1094   1.411       .  A
C1090      C1091   1.412       .  A
C1090     Br1101   1.930       .  S
C1091      C1092   1.422       .  A
C1091     Br1097   1.934       .  S
C1092      C1093   1.419       .  A
C1093      C1094   1.413       .  A
C1093     Br1102   1.934       .  S
C1094     Br1098   1.931       .  S
C1103      C1104   1.415       .  A
C1103      C1108   1.420       .  A
C1104      C1105   1.414       .  A
C1104     Br1116   1.929       .  S
C1105      C1106   1.414       .  A
C1105     Br1120   1.930       .  S
C1106      C1109   1.494       .  S
C1106      C1107   1.405       .  A
C1107      C1108   1.408       .  A
C1107     Br1115   1.933       .  S
C1108     Br1119   1.931       .  S
C1109      C1110   1.412       .  A
C1109      C1114   1.404       .  A
C1110      C1111   1.416       .  A
C1110     Br1121   1.929       .  S
C1111      C1112   1.415       .  A
C1111     Br1117   1.929       .  S
C1112      C1113   1.427       .  A
C1113      C1114   1.405       .  A
C1113     Br1122   1.936       .  S
C1114     Br1118   1.936       .  S
C1123      C1124   1.413       .  A
C1123      C1128   1.410       .  A
C1124      C1125   1.419       .  A
C1124     Br1136   1.922       .  S
C1125      C1126   1.413       .  A
C1125     Br1140   1.924       .  S
C1126      C1129   1.517       .  S
C1126      C1127   1.414       .  A
C1127      C1128   1.420       .  A
C1127     Br1135   1.925       .  S
C1128     Br1139   1.919       .  S
C1129      C1130   1.411       .  A
C1129      C1134   1.415       .  A
C1130      C1131   1.421       .  A
C1130     Br1141   1.929       .  S
C1131      C1132   1.422       .  A
C1131     Br1137   1.930       .  S
C1132      C1133   1.417       .  A
C1133      C1134   1.424       .  A
C1133     Br1142   1.925       .  S
C1134     Br1138   1.930       .  S
C1143      C1144   1.425       .  A
C1143      C1148   1.429       .  A
C1144      C1145   1.422       .  A
C1144     Br1156   1.927       .  S
C1145      C1146   1.410       .  A
C1145     Br1160   1.930       .  S
C1146      C1149   1.496       .  S
C1146      C1147   1.401       .  A
C1147      C1148   1.403       .  A
C1147     Br1155   1.939       .  S
C1148     Br1159   1.932       .  S
C1149      C1150   1.406       .  A
C1149      C1154   1.409       .  A
C1150      C1151   1.413       .  A
C1150     Br1161   1.929       .  S
C1151      C1152   1.421       .  A
C1151     Br1157   1.931       .  S
C1152      C1153   1.420       .  A
C1153      C1154   1.411       .  A
C1153     Br1162   1.935       .  S
C1154     Br1158   1.927       .  S
C1163      C1164   1.415       .  A
C1163      C1168   1.414       .  A
C1164      C1165   1.424       .  A
C1164     Br1176   1.928       .  S
C1165      C1166   1.418       .  A
C1165     Br1180   1.928       .  S
C1166      C1169   1.522       .  S
C1166      C1167   1.415       .  A
C1167      C1168   1.421       .  A
C1167     Br1175   1.927       .  S
C1168     Br1179   1.927       .  S
C1169      C1170   1.415       .  A
C1169      C1174   1.417       .  A
C1170      C1171   1.419       .  A
C1170     Br1181   1.926       .  S
C1171      C1172   1.412       .  A
C1171     Br1177   1.920       .  S
C1172      C1173   1.413       .  A
C1173      C1174   1.424       .  A
C1173     Br1182   1.925       .  S
C1174     Br1178   1.926       .  S
C1183      C1184   1.419   1_565  A
C1183      C1188   1.419       .  A
C1184      C1185   1.413       .  A
C1184     Br1196   1.934       .  S
C1185      C1186   1.410   1_545  A
C1185     Br1200   1.929       .  S
C1186      C1189   1.506       .  S
C1186      C1187   1.411       .  A
C1187      C1188   1.416       .  A
C1187     Br1195   1.927       .  S
C1188     Br1199   1.930       .  S
C1189      C1190   1.400       .  A
C1189      C1194   1.402   1_565  A
C1190      C1191   1.419       .  A
C1190     Br1201   1.938       .  S
C1191      C1192   1.437   1_565  A
C1191     Br1197   1.912       .  S
C1192      C1193   1.437       .  A
C1193      C1194   1.420       .  A
C1193     Br1202   1.916       .  S
C1194     Br1198   1.936       .  S
C1203      C1204   1.408   1_554  A
C1203      C1208   1.408       .  A
C1204      C1205   1.407       .  A
C1204     Br1216   1.929       .  S
C1205      C1206   1.410       .  A
C1205     Br1220   1.928       .  S
C1206      C1209   1.487       .  S
C1206      C1207   1.411   1_556  A
C1207      C1208   1.408       .  A
C1207     Br1215   1.929       .  S
C1208     Br1219   1.929       .  S
C1209      C1210   1.400       .  A
C1209      C1214   1.398   1_556  A
C1210      C1211   1.412       .  A
C1210     Br1221   1.932       .  S
C1211      C1212   1.429       .  A
C1211     Br1217   1.920       .  S
C1212      C1213   1.437   1_556  A
C1213      C1214   1.410       .  A
C1213     Br1222   1.916       .  S
C1214     Br1218   1.942       .  S
C1223      C1224   1.421   1_556  A
C1223      C1228   1.423       .  A
C1224      C1225   1.413       .  A
C1224     Br1236   1.934       .  S
C1225      C1226   1.409   1_554  A
C1225     Br1240   1.929       .  S
C1226      C1229   1.501       .  S
C1226      C1227   1.408       .  A
C1227      C1228   1.414       .  A
C1227     Br1235   1.927       .  S
C1228     Br1239   1.932       .  S
C1229      C1230   1.399       .  A
C1229      C1234   1.404       .  A
C1230      C1231   1.414       .  A
C1230     Br1241   1.943       .  S
C1231      C1232   1.439       .  A
C1231     Br1237   1.916       .  S
C1232      C1233   1.428       .  A
C1233      C1234   1.419       .  A
C1233     Br1242   1.923   1_556  S
C1234     Br1238   1.929   1_556  S
C1243      C1244   1.408       .  A
C1243      C1248   1.409       .  A
C1244      C1245   1.407       .  A
C1244     Br1256   1.928       .  S
C1245      C1246   1.409       .  A
C1245     Br1260   1.930       .  S
C1246      C1249   1.481       .  S
C1246      C1247   1.409       .  A
C1247      C1248   1.405       .  A
C1247     Br1255   1.930       .  S
C1248     Br1259   1.929       .  S
C1249      C1250   1.398       .  A
C1249      C1254   1.400       .  A
C1250      C1251   1.407       .  A
C1250     Br1261   1.938       .  S
C1251      C1252   1.428       .  A
C1251     Br1257   1.912       .  S
C1252      C1253   1.429       .  A
C1253      C1254   1.408       .  A
C1253     Br1262   1.921       .  S
C1254     Br1258   1.935       .  S
C1263      C1264   1.416       .  A
C1263      C1268   1.419       .  A
C1264      C1265   1.406       .  A
C1264     Br1276   1.934       .  S
C1265      C1266   1.409       .  A
C1265     Br1280   1.929       .  S
C1266      C1269   1.489       .  S
C1266      C1267   1.407       .  A
C1267      C1268   1.410       .  A
C1267     Br1275   1.929       .  S
C1268     Br1279   1.932       .  S
C1269      C1270   1.403       .  A
C1269      C1274   1.405       .  A
C1270      C1271   1.405       .  A
C1270     Br1281   1.938       .  S
C1271      C1272   1.424       .  A
C1271     Br1277   1.915       .  S
C1272      C1273   1.426       .  A
C1273      C1274   1.411       .  A
C1273     Br1282   1.932   1_565  S
C1274     Br1278   1.931       .  S
C1283      C1284   1.429       .  A
C1283      C1288   1.428   1_565  A
C1284      C1285   1.420       .  A
C1284     Br1296   1.932   1_554  S
C1285      C1286   1.408       .  A
C1285     Br1300   1.929       .  S
C1286      C1289   1.506       .  S
C1286      C1287   1.404   1_565  A
C1287      C1288   1.410       .  A
C1287     Br1295   1.936       .  S
C1288     Br1299   1.917       .  S
C1289      C1290   1.411       .  A
C1289      C1294   1.412   1_565  A
C1290      C1291   1.416       .  A
C1290     Br1301   1.927       .  S
C1291      C1292   1.421       .  A
C1291     Br1297   1.933       .  S
C1292      C1293   1.415   1_565  A
C1293      C1294   1.413       .  A
C1293     Br1302   1.930       .  S
C1294     Br1298   1.929       .  S
C1303      C1304   1.418       .  A
C1303      C1308   1.418       .  A
C1304      C1305   1.412       .  A
C1304     Br1316   1.926       .  S
C1305      C1306   1.409       .  A
C1305     Br1320   1.931       .  S
C1306      C1309   1.492       .  S
C1306      C1307   1.407       .  A
C1307      C1308   1.409       .  A
C1307     Br1315   1.931       .  S
C1308     Br1319   1.929       .  S
C1309      C1310   1.412       .  A
C1309      C1314   1.411       .  A
C1310      C1311   1.409       .  A
C1310     Br1321   1.926       .  S
C1311      C1312   1.409       .  A
C1311     Br1317   1.930       .  S
C1312      C1313   1.409       .  A
C1313      C1314   1.409       .  A
C1313     Br1322   1.929       .  S
C1314     Br1318   1.930       .  S
C1323      C1324   1.418       .  A
C1323      C1328   1.412       .  A
C1324      C1325   1.423       .  A
C1324     Br1336   1.929       .  S
C1325      C1326   1.414       .  A
C1325     Br1340   1.927       .  S
C1326      C1329   1.522       .  S
C1326      C1327   1.416       .  A
C1327      C1328   1.420       .  A
C1327     Br1335   1.922       .  S
C1328     Br1339   1.929       .  S
C1329      C1330   1.417       .  A
C1329      C1334   1.411       .  A
C1330      C1331   1.426       .  A
C1330     Br1341   1.927       .  S
C1331      C1332   1.415       .  A
C1331     Br1337   1.925       .  S
C1332      C1333   1.417       .  A
C1333      C1334   1.419       .  A
C1333     Br1342   1.928       .  S
C1334     Br1338   1.925       .  S
C1343      C1344   1.431       .  A
C1343      C1348   1.429       .  A
C1344      C1345   1.417       .  A
C1344     Br1356   1.937       .  S
C1345      C1346   1.409       .  A
C1345     Br1360   1.932       .  S
C1346      C1349   1.509       .  S
C1346      C1347   1.407       .  A
C1347      C1348   1.416       .  A
C1347     Br1355   1.936       .  S
C1348     Br1359   1.922       .  S
C1349      C1350   1.410       .  A
C1349      C1354   1.413       .  A
C1350      C1351   1.415       .  A
C1350     Br1361   1.933       .  S
C1351      C1352   1.425       .  A
C1351     Br1357   1.937       .  S
C1352      C1353   1.422       .  A
C1353      C1354   1.418       .  A
C1353     Br1362   1.932       .  S
C1354     Br1358   1.932       .  S
C1363      C1364   1.421       .  A
C1363      C1368   1.416       .  A
C1364      C1365   1.406       .  A
C1364     Br1376   1.920       .  S
C1365      C1366   1.406       .  A
C1365     Br1380   1.939       .  S
C1366      C1369   1.513       .  S
C1366      C1367   1.420       .  A
C1367      C1368   1.430       .  A
C1367     Br1375   1.924       .  S
C1368     Br1379   1.926       .  S
C1369      C1370   1.416       .  A
C1369      C1374   1.413       .  A
C1370      C1371   1.424       .  A
C1370     Br1381   1.924       .  S
C1371      C1372   1.416       .  A
C1371     Br1377   1.924       .  S
C1372      C1373   1.411       .  A
C1373      C1374   1.410       .  A
C1373     Br1382   1.924       .  S
C1374     Br1378   1.927       .  S
C1383      C1384   1.417       .  A
C1383      C1388   1.412       .  A
C1384      C1385   1.414       .  A
C1384     Br1396   1.931       .  S
C1385      C1386   1.410       .  A
C1385     Br1400   1.931       .  S
C1386      C1389   1.498       .  S
C1386      C1387   1.411       .  A
C1387      C1388   1.410       .  A
C1387     Br1395   1.926       .  S
C1388     Br1399   1.931       .  S
C1389      C1390   1.405       .  A
C1389      C1394   1.408       .  A
C1390      C1391   1.413       .  A
C1390     Br1401   1.934       .  S
C1391      C1392   1.431       .  A
C1391     Br1397   1.932       .  S
C1392      C1393   1.419       .  A
C1393      C1394   1.414       .  A
C1393     Br1402   1.918       .  S
C1394     Br1398   1.931       .  S
C1403      C1404   1.411       .  A
C1403      C1408   1.418       .  A
C1404      C1405   1.422       .  A
C1404     Br1416   1.915       .  S
C1405      C1406   1.415       .  A
C1405     Br1420   1.925       .  S
C1406      C1409   1.520       .  S
C1406      C1407   1.412       .  A
C1407      C1408   1.422       .  A
C1407     Br1415   1.926       .  S
C1408     Br1419   1.923       .  S
C1409      C1410   1.411       .  A
C1409      C1414   1.418       .  A
C1410      C1411   1.417       .  A
C1410     Br1421   1.928       .  S
C1411      C1412   1.418       .  A
C1411     Br1417   1.931       .  S
C1412      C1413   1.416       .  A
C1413      C1414   1.424       .  A
C1413     Br1422   1.930       .  S
C1414     Br1418   1.922       .  S
C1423      C1424   1.415       .  A
C1423      C1428   1.420       .  A
C1424      C1425   1.414       .  A
C1424     Br1436   1.928       .  S
C1425      C1426   1.409       .  A
C1425     Br1440   1.929       .  S
C1426      C1429   1.492       .  S
C1426      C1427   1.405       .  A
C1427      C1428   1.408       .  A
C1427     Br1435   1.934       .  S
C1428     Br1439   1.923       .  S
C1429      C1430   1.407       .  A
C1429      C1434   1.411       .  A
C1430      C1431   1.409       .  A
C1430     Br1441   1.931       .  S
C1431      C1432   1.416       .  A
C1431     Br1437   1.931       .  S
C1432      C1433   1.414       .  A
C1433      C1434   1.412       .  A
C1433     Br1442   1.931       .  S
C1434     Br1438   1.929       .  S
C1443      C1444   1.416       .  A
C1443      C1448   1.424       .  A
C1444      C1445   1.419       .  A
C1444     Br1456   1.928       .  S
C1445      C1446   1.415       .  A
C1445     Br1460   1.929       .  S
C1446      C1449   1.511       .  S
C1446      C1447   1.409       .  A
C1447      C1448   1.418       .  A
C1447     Br1455   1.930       .  S
C1448     Br1459   1.933       .  S
C1449      C1450   1.416       .  A
C1449      C1454   1.410       .  A
C1450      C1451   1.419       .  A
C1450     Br1461   1.926       .  S
C1451      C1452   1.409       .  A
C1451     Br1457   1.924       .  S
C1452      C1453   1.415       .  A
C1453      C1454   1.416       .  A
C1453     Br1462   1.924       .  S
C1454     Br1458   1.927       .  S
C1463      C1464   1.416       .  A
C1463      C1468   1.416       .  A
C1464      C1465   1.418       .  A
C1464     Br1476   1.933       .  S
C1465      C1466   1.418       .  A
C1465     Br1480   1.926       .  S
C1466      C1469   1.523       .  S
C1466      C1467   1.418       .  A
C1467      C1468   1.423       .  A
C1467     Br1475   1.928       .  S
C1468     Br1479   1.928       .  S
C1469      C1470   1.416       .  A
C1469      C1474   1.415       .  A
C1470      C1471   1.421       .  A
C1470     Br1481   1.928       .  S
C1471      C1472   1.418       .  A
C1471     Br1477   1.923       .  S
C1472      C1473   1.418       .  A
C1473      C1474   1.423       .  A
C1473     Br1482   1.927       .  S
C1474     Br1478   1.926       .  S
C1483      C1484   1.413       .  A
C1483      C1488   1.405       .  A
C1484      C1485   1.421       .  A
C1484     Br1496   1.925       .  S
C1485      C1486   1.415       .  A
C1485     Br1500   1.927       .  S
C1486      C1489   1.513       .  S
C1486      C1487   1.414       .  A
C1487      C1488   1.410       .  A
C1487     Br1495   1.913       .  S
C1488     Br1499   1.931       .  S
C1489      C1490   1.412       .  A
C1489      C1494   1.412       .  A
C1490      C1491   1.420       .  A
C1490     Br1501   1.928       .  S
C1491      C1492   1.422       .  A
C1491     Br1497   1.930       .  S
C1492      C1493   1.421       .  A
C1493      C1494   1.419       .  A
C1493     Br1502   1.924       .  S
C1494     Br1498   1.931       .  S
C1503      C1504   1.425       .  A
C1503      C1508   1.414       .  A
C1504      C1505   1.409       .  A
C1504     Br1516   1.927       .  S
C1505      C1506   1.405       .  A
C1505     Br1520   1.938       .  S
C1506      C1509   1.499       .  S
C1506      C1507   1.412       .  A
C1507      C1508   1.418       .  A
C1507     Br1515   1.928       .  S
C1508     Br1519   1.925       .  S
C1509      C1510   1.412       .  A
C1509      C1514   1.409       .  A
C1510      C1511   1.411       .  A
C1510     Br1521   1.924       .  S
C1511      C1512   1.415       .  A
C1511     Br1517   1.934       .  S
C1512      C1513   1.415       .  A
C1513      C1514   1.413       .  A
C1513     Br1522   1.928       .  S
C1514     Br1518   1.928       .  S
C1523      C1524   1.417       .  A
C1523      C1528   1.426       .  A
C1524      C1525   1.421       .  A
C1524     Br1536   1.927       .  S
C1525      C1526   1.412       .  A
C1525     Br1540   1.926       .  S
C1526      C1529   1.509       .  S
C1526      C1527   1.407       .  A
C1527      C1528   1.414       .  A
C1527     Br1535   1.933       .  S
C1528     Br1539   1.929       .  S
C1529      C1530   1.409       .  A
C1529      C1534   1.414       .  A
C1530      C1531   1.417       .  A
C1530     Br1541   1.928       .  S
C1531      C1532   1.419       .  A
C1531     Br1537   1.929       .  S
C1532      C1533   1.414       .  A
C1533      C1534   1.418       .  A
C1533     Br1542   1.929       .  S
C1534     Br1538   1.925       .  S
C1543      C1544   1.411       .  A
C1543      C1548   1.408       .  A
C1544      C1545   1.418       .  A
C1544     Br1556   1.929       .  S
C1545      C1546   1.416       .  A
C1545     Br1560   1.927       .  S
C1546      C1549   1.513       .  S
C1546      C1547   1.416       .  A
C1547      C1548   1.414       .  A
C1547     Br1555   1.921       .  S
C1548     Br1559   1.932       .  S
C1549      C1550   1.411       .  A
C1549      C1554   1.413       .  A
C1550      C1551   1.420       .  A
C1550     Br1561   1.931       .  S
C1551      C1552   1.426       .  A
C1551     Br1557   1.932       .  S
C1552      C1553   1.421       .  A
C1553      C1554   1.419       .  A
C1553     Br1562   1.925       .  S
C1554     Br1558   1.931       .  S
C1563      C1564   1.421       .  A
C1563      C1568   1.425       .  A
C1564      C1565   1.418       .  A
C1564     Br1576   1.921       .  S
C1565      C1566   1.411       .  A
C1565     Br1580   1.931       .  S
C1566      C1569   1.517       .  S
C1566      C1567   1.413       .  A
C1567      C1568   1.423       .  A
C1567     Br1575   1.928       .  S
C1568     Br1579   1.931       .  S
C1569      C1570   1.415       .  A
C1569      C1574   1.415       .  A
C1570      C1571   1.417       .  A
C1570     Br1581   1.925       .  S
C1571      C1572   1.411       .  A
C1571     Br1577   1.928       .  S
C1572      C1573   1.414       .  A
C1573      C1574   1.421       .  A
C1573     Br1582   1.927       .  S
C1574     Br1578   1.927       .  S
C1583      C1584   1.423       .  A
C1583      C1588   1.416       .  A
C1584      C1585   1.408       .  A
C1584     Br1596   1.931       .  S
C1585      C1586   1.405       .  A
C1585     Br1600   1.936       .  S
C1586      C1589   1.500       .  S
C1586      C1587   1.412       .  A
C1587      C1588   1.421       .  A
C1587     Br1595   1.927       .  S
C1588     Br1599   1.925       .  S
C1589      C1590   1.412       .  A
C1589      C1594   1.410       .  A
C1590      C1591   1.413       .  A
C1590     Br1601   1.929       .  S
C1591      C1592   1.415       .  A
C1591     Br1597   1.931       .  S
C1592      C1593   1.415       .  A
C1593      C1594   1.414       .  A
C1593     Br1602   1.930       .  S
C1594     Br1598   1.927       .  S
C1603      C1604   1.425       .  A
C1603      C1608   1.416       .  A
C1604      C1605   1.411       .  A
C1604     Br1616   1.925       .  S
C1605      C1606   1.406       .  A
C1605     Br1620   1.937       .  S
C1606      C1609   1.503       .  S
C1606      C1607   1.412       .  A
C1607      C1608   1.420       .  A
C1607     Br1615   1.927       .  S
C1608     Br1619   1.927       .  S
C1609      C1610   1.414       .  A
C1609      C1614   1.411       .  A
C1610      C1611   1.414       .  A
C1610     Br1621   1.927       .  S
C1611      C1612   1.410       .  A
C1611     Br1617   1.928       .  S
C1612      C1613   1.413       .  A
C1613      C1614   1.415       .  A
C1613     Br1622   1.929       .  S
C1614     Br1618   1.927       .  S
C1623      C1624   1.420       .  A
C1623      C1628   1.426       .  A
C1624      C1625   1.419       .  A
C1624     Br1636   1.925       .  S
C1625      C1626   1.411       .  A
C1625     Br1640   1.929       .  S
C1626      C1629   1.503       .  S
C1626      C1627   1.406       .  A
C1627      C1628   1.412       .  A
C1627     Br1635   1.935       .  S
C1628     Br1639   1.928       .  S
C1629      C1630   1.413       .  A
C1629      C1634   1.410       .  A
C1630      C1631   1.412       .  A
C1630     Br1641   1.921       .  S
C1631      C1632   1.410       .  A
C1631     Br1637   1.931       .  S
C1632      C1633   1.416       .  A
C1633      C1634   1.414       .  A
C1633     Br1642   1.930       .  S
C1634     Br1638   1.928       .  S
C1643      C1644   1.415       .  A
C1643      C1648   1.415       .  A
C1644      C1645   1.419       .  A
C1644     Br1656   1.923       .  S
C1645      C1646   1.412       .  A
C1645     Br1660   1.925       .  S
C1646      C1649   1.510       .  S
C1646      C1647   1.408       .  A
C1647      C1648   1.418       .  A
C1647     Br1655   1.924       .  S
C1648     Br1659   1.916       .  S
C1649      C1650   1.414       .  A
C1649      C1654   1.414       .  A
C1650      C1651   1.419       .  A
C1650     Br1661   1.928       .  S
C1651      C1652   1.414       .  A
C1651     Br1657   1.929       .  S
C1652      C1653   1.411       .  A
C1653      C1654   1.416       .  A
C1653     Br1662   1.927       .  S
C1654     Br1658   1.929       .  S
C1663      C1664   1.423       .  A
C1663      C1668   1.431       .  A
C1664      C1665   1.418       .  A
C1664     Br1676   1.933       .  S
C1665      C1666   1.411       .  A
C1665     Br1680   1.931       .  S
C1666      C1669   1.506       .  S
C1666      C1667   1.406       .  A
C1667      C1668   1.416       .  A
C1667     Br1675   1.935       .  S
C1668     Br1679   1.930       .  S
C1669      C1670   1.412       .  A
C1669      C1674   1.412       .  A
C1670      C1671   1.418       .  A
C1670     Br1681   1.930       .  S
C1671      C1672   1.417       .  A
C1671     Br1677   1.928       .  S
C1672      C1673   1.408       .  A
C1673      C1674   1.408       .  A
C1673     Br1682   1.933       .  S
C1674     Br1678   1.917       .  S
C1683      C1684   1.417       .  A
C1683      C1688   1.413       .  A
C1684      C1685   1.428       .  A
C1684     Br1696   1.927       .  S
C1685      C1686   1.419       .  A
C1685     Br1700   1.927       .  S
C1686      C1689   1.529       .  S
C1686      C1687   1.415       .  A
C1687      C1688   1.421       .  A
C1687     Br1695   1.924       .  S
C1688     Br1699   1.928       .  S
C1689      C1690   1.407       .  A
C1689      C1694   1.416       .  A
C1690      C1691   1.422       .  A
C1690     Br1701   1.925       .  S
C1691      C1692   1.425       .  A
C1691     Br1697   1.923       .  S
C1692      C1693   1.422       .  A
C1693      C1694   1.432       .  A
C1693     Br1702   1.927       .  S
C1694     Br1698   1.925       .  S
C1703      C1704   1.420       .  A
C1703      C1708   1.426       .  A
C1704      C1705   1.422       .  A
C1704     Br1716   1.930       .  S
C1705      C1706   1.418       .  A
C1705     Br1720   1.930       .  S
C1706      C1709   1.521       .  S
C1706      C1707   1.412       .  A
C1707      C1708   1.422       .  A
C1707     Br1715   1.931       .  S
C1708     Br1719   1.931       .  S
C1709      C1710   1.422       .  A
C1709      C1714   1.418       .  A
C1710      C1711   1.413       .  A
C1710     Br1721   1.919       .  S
C1711      C1712   1.405       .  A
C1711     Br1717   1.933       .  S
C1712      C1713   1.411       .  A
C1713      C1714   1.420       .  A
C1713     Br1722   1.926       .  S
C1714     Br1718   1.927       .  S
C1723      C1724   1.415       .  A
C1723      C1728   1.412       .  A
C1724      C1725   1.417       .  A
C1724     Br1736   1.930       .  S
C1725      C1726   1.414       .  A
C1725     Br1740   1.930       .  S
C1726      C1729   1.507       .  S
C1726      C1727   1.412       .  A
C1727      C1728   1.417       .  A
C1727     Br1735   1.926       .  S
C1728     Br1739   1.926       .  S
C1729      C1730   1.407       .  A
C1729      C1734   1.411       .  A
C1730      C1731   1.414       .  A
C1730     Br1741   1.928       .  S
C1731      C1732   1.416       .  A
C1731     Br1737   1.911       .  S
C1732      C1733   1.419       .  A
C1733      C1734   1.419       .  A
C1733     Br1742   1.930       .  S
C1734     Br1738   1.925       .  S
C1743      C1744   1.421       .  A
C1743      C1748   1.431       .  A
C1744      C1745   1.428       .  A
C1744     Br1756   1.926       .  S
C1745      C1746   1.418       .  A
C1745     Br1760   1.929       .  S
C1746      C1749   1.522       .  S
C1746      C1747   1.408       .  A
C1747      C1748   1.417       .  A
C1747     Br1755   1.938       .  S
C1748     Br1759   1.926       .  S
C1749      C1750   1.414       .  A
C1749      C1754   1.420       .  A
C1750      C1751   1.419       .  A
C1750     Br1761   1.931       .  S
C1751      C1752   1.421       .  A
C1751     Br1757   1.933       .  S
C1752      C1753   1.416       .  A
C1753      C1754   1.423       .  A
C1753     Br1762   1.931       .  S
C1754     Br1758   1.930       .  S
C1763      C1764   1.413       .  A
C1763      C1768   1.418       .  A
C1764      C1765   1.417       .  A
C1764     Br1776   1.929       .  S
C1765      C1766   1.416       .  A
C1765     Br1780   1.927       .  S
C1766      C1769   1.523       .  S
C1766      C1767   1.417       .  A
C1767      C1768   1.426       .  A
C1767     Br1775   1.928       .  S
C1768     Br1779   1.928       .  S
C1769      C1770   1.410       .  A
C1769      C1774   1.419       .  A
C1770      C1771   1.414       .  A
C1770     Br1781   1.936       .  S
C1771      C1772   1.422       .  A
C1771     Br1777   1.916       .  S
C1772      C1773   1.421       .  A
C1773      C1774   1.429       .  A
C1773     Br1782   1.930       .  S
C1774     Br1778   1.926       .  S
