geometry optimzed in LAMMPS
_audit_creation_date              2020-11-30 
_audit_creation_method            'lammps2cif' 
_symmetry_space_group_name_H-M    'P1' 
_symmetry_Int_Tables_number       1 
_symmetry_cell_setting            triclinic 
loop_ 
_symmetry_equiv_pos_as_xyz 
  x,y,z 
_cell_length_a                    30.00728753 
_cell_length_b                    31.45166119399411 
_cell_length_c                    35.16516890872617 
_cell_angle_alpha                 90.26003158224724 
_cell_angle_beta                  90.19074300878562 
_cell_angle_gamma                 89.52695869343425 
loop_ 
_atom_site_label 
_atom_site_type_symbol 
_atom_site_fract_x 
_atom_site_fract_y 
_atom_site_fract_z 
_atom_site_charge 
N1          N  0.49704412  0.43536816  0.78072895    -0.36600
N2          N  0.42520282  0.49818815  0.78687784    -0.57200
N3          N  0.49569875  0.56131411  0.78492226    -0.36600
N4          N  0.56727004  0.49836679  0.78234357    -0.57200
C5          C  0.46113446  0.41064896  0.78636553     0.27000
C6          C  0.53356571  0.41055837  0.78553031     0.27000
C7          C  0.45952221  0.58549611  0.79319809     0.27000
C8          C  0.53207084  0.58583417  0.78985060     0.27000
C9          C  0.40199125  0.46424991  0.77413639     0.35600
C10         C  0.40097933  0.53305156  0.77738209     0.35600
C11         C  0.59076144  0.46412202  0.77003837     0.35600
C12         C  0.58976880  0.53304341  0.77079146     0.35600
C13         C  0.47487853  0.36981277  0.79566973    -0.21900
C14         C  0.52069910  0.36976841  0.79524082    -0.21900
C15         C  0.47316451  0.62553973  0.80481027    -0.21900
C16         C  0.51900212  0.62581034  0.80251869    -0.21900
C17         C  0.36202108  0.47745687  0.75810850    -0.22900
C18         C  0.36137482  0.52102375  0.76013214    -0.22900
C19         C  0.62923570  0.47704152  0.75189162    -0.22900
C20         C  0.62854422  0.52074304  0.75225284    -0.22900
C21         C  0.41736708  0.42169610  0.77545078    -0.18300
C22         C  0.57690460  0.42149897  0.77383422    -0.18300
C23         C  0.57506023  0.57552917  0.77610850    -0.18300
C24         C  0.41546799  0.57548291  0.78208893    -0.18300
H25         H  0.45394194  0.34244152  0.80016626     0.14600
H26         H  0.54211282  0.34229806  0.79931698     0.14600
H27         H  0.45203432  0.65255456  0.81161438     0.14600
H28         H  0.54011903  0.65305104  0.80728102     0.14600
H29         H  0.33660462  0.45795771  0.74509194     0.12900
H30         H  0.33537045  0.54134209  0.74876928     0.12900
H31         H  0.65449997  0.45716623  0.73875459     0.12900
H32         H  0.65325965  0.54101456  0.73949295     0.12900
H33         H  0.49639886  0.46445403  0.76695583     0.26200
H34         H  0.49509087  0.53323099  0.76937485     0.26200
N35         N  0.49063845  0.56057175  0.88029165    -0.36600
N36         N  0.56073246  0.49609113  0.87476907    -0.57200
N37         N  0.49681188  0.42761142  0.87332869    -0.36600
N38         N  0.42704445  0.49223276  0.87802034    -0.57200
C39         C  0.52656339  0.58259912  0.89250342     0.27000
C40         C  0.45399687  0.58000400  0.89497252     0.27000
C41         C  0.53427472  0.40620390  0.88360664     0.27000
C42         C  0.46163794  0.40428416  0.88483101     0.27000
C43         C  0.58555130  0.53160601  0.87195005     0.35600
C44         C  0.58874098  0.46277816  0.86898116     0.35600
C45         C  0.39879555  0.52577689  0.87627299     0.35600
C46         C  0.40244387  0.45738463  0.87095912     0.35600
C47         C  0.51251978  0.61695062  0.91439649    -0.21900
C48         C  0.46683390  0.61525550  0.91603091    -0.21900
C49         C  0.52263049  0.36834806  0.90095043    -0.21900
C50         C  0.47688709  0.36712804  0.90167491    -0.21900
C51         C  0.62920477  0.52085865  0.86307375    -0.22900
C52         C  0.63121297  0.47728649  0.86115942    -0.22900
C53         C  0.35632545  0.51242808  0.86670370    -0.22900
C54         C  0.35864679  0.46898692  0.86329672    -0.22900
C55         C  0.57171110  0.57218594  0.88494754    -0.18300
C56         C  0.40935772  0.56658336  0.88999378    -0.18300
C57         C  0.41621996  0.41596829  0.88083881    -0.18300
C58         C  0.57858468  0.42018649  0.87814743    -0.18300
H59         H  0.53304452  0.64030263  0.92861603     0.14600
H60         H  0.44570833  0.63705150  0.93178017     0.14600
H61         H  0.54461065  0.34432038  0.91269592     0.14600
H62         H  0.45724160  0.34194889  0.91384611     0.14600
H63         H  0.65722966  0.54211563  0.86065465     0.12900
H64         H  0.66105568  0.45832615  0.85686937     0.12900
H65         H  0.32639567  0.53172757  0.86461309     0.12900
H66         H  0.33077237  0.44799654  0.85843706     0.12900
H67         H  0.49107182  0.53515448  0.86122316     0.26200
H68         H  0.49523264  0.45554671  0.85761627     0.26200
N69         N  0.51227570  0.02887440  0.38191111    -0.36600
N70         N  0.57079392  0.05718641  0.32246715    -0.57200
N71         N  0.49939642  0.07588396  0.26928701    -0.36600
N72         N  0.43330720  0.07286965  0.33000403    -0.57200
C73         C  0.54199917  0.05366018  0.40004128     0.27000
C74         C  0.47200463  0.03843880  0.39634492     0.27000
C75         C  0.53575629  0.08495362  0.24791304     0.27000
C76         C  0.46382560  0.09558716  0.25278674     0.27000
C77         C  0.59900623  0.04905674  0.35162030     0.35600
C78         C  0.59520199  0.05552566  0.29043317     0.35600
C79         C  0.41002315  0.05184561  0.35669356     0.35600
C80         C  0.40518375  0.07983931  0.30086200     0.35600
C81         C  0.52053729  0.07863918  0.42708644    -0.21900
C82         C  0.47560227  0.07008201  0.42359563    -0.21900
C83         C  0.52281168  0.11022169  0.21749049    -0.21900
C84         C  0.47772628  0.11684831  0.22055335    -0.21900
C85         C  0.64141253  0.04075560  0.33820173    -0.22900
C86         C  0.63889784  0.04414811  0.29921768    -0.22900
C87         C  0.36598721  0.04791482  0.34549779    -0.22900
C88         C  0.36261801  0.06658505  0.31026949    -0.22900
C89         C  0.58711295  0.05606486  0.38981028    -0.18300
C90         C  0.43224314  0.02325350  0.38067616    -0.18300
C91         C  0.41860719  0.09345695  0.26458296    -0.18300
C92         C  0.58057182  0.07184671  0.25504791    -0.18300
H93         H  0.53519632  0.10279067  0.44510396     0.14600
H94         H  0.44872148  0.08578919  0.43867715     0.14600
H95         H  0.54370469  0.12329814  0.19550500     0.14600
H96         H  0.45749061  0.13560510  0.20127055     0.14600
H97         H  0.67114433  0.03453355  0.35483787     0.12900
H98         H  0.66669892  0.04134379  0.27981835     0.12900
H99         H  0.34056935  0.02924918  0.35922170     0.12900
H100        H  0.33349772  0.06607323  0.29203875     0.12900
H101        H  0.51869899  0.00789551  0.35944515     0.26200
H102        H  0.49833127  0.05479471  0.29198387     0.26200
N103        N  0.92500155  0.49581143  0.26442300    -0.36600
N104        N  0.91819563  0.43118810  0.32294837    -0.57200
N105        N  0.92388953  0.49455531  0.38279676    -0.36600
N106        N  0.92898535  0.55907174  0.32433689    -0.57200
C107        C  0.90731317  0.46277762  0.24482037     0.27000
C108        C  0.91339883  0.53179801  0.24562963     0.27000
C109        C  0.90761711  0.46071293  0.40180190     0.27000
C110        C  0.91136849  0.52997018  0.40225099     0.27000
C111        C  0.92202296  0.40610688  0.29189118     0.35600
C112        C  0.92305628  0.40539548  0.35326909     0.35600
C113        C  0.93802218  0.58373697  0.29409282     0.35600
C114        C  0.93673060  0.58305679  0.35550769     0.35600
C115        C  0.88500504  0.47785927  0.21299804    -0.21900
C116        C  0.88873082  0.52133821  0.21354390    -0.21900
C117        C  0.88524856  0.47468409  0.43399914    -0.21900
C118        C  0.88741262  0.51835439  0.43419229    -0.21900
C119        C  0.93049716  0.36440127  0.30247721    -0.22900
C120        C  0.93125292  0.36396823  0.34144663    -0.22900
C121        C  0.95319059  0.62310901  0.30605388    -0.22900
C122        C  0.95245397  0.62264493  0.34510714    -0.22900
C123        C  0.91092761  0.41934392  0.25481703    -0.18300
C124        C  0.92434323  0.57381065  0.25678016    -0.18300
C125        C  0.92160746  0.57237078  0.39209312    -0.18300
C126        C  0.91253220  0.41757477  0.39079270    -0.18300
H127        H  0.86688584  0.45957432  0.19198648     0.14600
H128        H  0.87391222  0.54275924  0.19301107     0.14600
H129        H  0.86826573  0.45550632  0.45481901     0.14600
H130        H  0.87244616  0.53910763  0.45527647     0.14600
H131        H  0.93409058  0.33690665  0.28409102     0.12900
H132        H  0.93540543  0.33607208  0.35905669     0.12900
H133        H  0.96138985  0.65008091  0.28847256     0.12900
H134        H  0.96006151  0.64917139  0.36367391     0.12900
H135        H  0.94631523  0.49367207  0.28781515     0.26200
H136        H  0.94510920  0.49329932  0.35941526     0.26200
N137        N  0.51016771  0.96039458  0.25756825    -0.36600
N138        N  0.56742457  0.93418193  0.32253220    -0.57200
N139        N  0.49108903  0.92879429  0.37291356    -0.36600
N140        N  0.43159673  0.97896412  0.30382420    -0.57200
C141        C  0.54920010  0.95527478  0.23894191     0.27000
C142        C  0.47742960  0.96383993  0.23101459     0.27000
C143        C  0.52343541  0.92091982  0.39869102     0.27000
C144        C  0.45698056  0.94801214  0.39133912     0.27000
C145        C  0.59846423  0.93543146  0.29470492     0.35600
C146        C  0.58860517  0.92000042  0.35419912     0.35600
C147        C  0.41517691  0.95498549  0.27530204     0.35600
C148        C  0.41390968  0.96345663  0.33601236     0.35600
C149        C  0.54142148  0.95929604  0.20009782    -0.21900
C150        C  0.49631147  0.96506716  0.19518953    -0.21900
C151        C  0.50735610  0.93022193  0.43482749    -0.21900
C152        C  0.46592090  0.94887593  0.42994689    -0.21900
C153        C  0.63981716  0.92413618  0.30937862    -0.22900
C154        C  0.63364277  0.91446772  0.34681665    -0.22900
C155        C  0.38563666  0.92520821  0.28926041    -0.22900
C156        C  0.38629411  0.92958044  0.32829013    -0.22900
C157        C  0.59012739  0.94101515  0.25522443    -0.18300
C158        C  0.43175794  0.95567433  0.23798416    -0.18300
C159        C  0.42816811  0.97626419  0.37225475    -0.18300
C160        C  0.56861937  0.91189521  0.39000747    -0.18300
H161        H  0.56505148  0.95533552  0.17719895     0.14600
H162        H  0.47903840  0.96596238  0.16813043     0.14600
H163        H  0.52544687  0.92885544  0.46143529     0.14600
H164        H  0.44681925  0.96518202  0.45164666     0.14600
H165        H  0.67112624  0.92177947  0.29428190     0.12900
H166        H  0.65951112  0.90397081  0.36620657     0.12900
H167        H  0.36884044  0.90048957  0.27336487     0.12900
H168        H  0.36920119  0.90992831  0.34868938     0.12900
H169        H  0.50533653  0.95621877  0.28641917     0.26200
H170        H  0.49322823  0.92510045  0.34359041     0.26200
N171        N  0.07424208  0.50610661  0.37594822    -0.36600
N172        N  0.06261012  0.43616844  0.32285791    -0.57200
N173        N  0.06714647  0.49305334  0.25855135    -0.36600
N174        N  0.08009854  0.56368421  0.31153643    -0.57200
C175        C  0.08608936  0.47257391  0.39808279     0.27000
C176        C  0.09034380  0.54157823  0.39289517     0.27000
C177        C  0.07317236  0.45475876  0.24140029     0.27000
C178        C  0.08424038  0.52276465  0.23504926     0.27000
C179        C  0.05857656  0.41499784  0.35587897     0.35600
C180        C  0.05140899  0.40853287  0.29509771     0.35600
C181        C  0.07850197  0.59285557  0.33997634     0.35600
C182        C  0.07810082  0.58543557  0.27840149     0.35600
C183        C  0.10919833  0.48710885  0.42971028    -0.21900
C184        C  0.11166114  0.53052171  0.42656157    -0.21900
C185        C  0.09329484  0.46047160  0.20634679    -0.21900
C186        C  0.09951009  0.50319311  0.20206975    -0.21900
C187        C  0.04328267  0.37417403  0.34921665    -0.22900
C188        C  0.03867231  0.37010001  0.31061926    -0.22900
C189        C  0.07446994  0.63330464  0.32478838    -0.22900
C190        C  0.07468929  0.62864811  0.28586061    -0.22900
C191        C  0.07644918  0.42924045  0.39064897    -0.18300
C192        C  0.08642722  0.58375014  0.37895477    -0.18300
C193        C  0.08563649  0.56715146  0.24203003    -0.18300
C194        C  0.06138308  0.41467028  0.25646951    -0.18300
H195        H  0.12337640  0.46848912  0.45260460     0.14600
H196        H  0.12838664  0.55139952  0.44644711     0.14600
H197        H  0.10332848  0.43650064  0.18589835     0.14600
H198        H  0.11418492  0.51774042  0.17735635     0.14600
H199        H  0.03839520  0.34922054  0.36985178     0.12900
H200        H  0.02970368  0.34130742  0.29556111     0.12900
H201        H  0.07344004  0.66322339  0.34008258     0.12900
H202        H  0.07393707  0.65431870  0.26549923     0.12900
H203        H  0.05365066  0.50539954  0.35209278     0.26200
H204        H  0.04962515  0.49884205  0.28355646     0.26200
Zr205      Zr  0.20614208  0.21757250  0.12798790     2.17500
O206        O  0.23640257  0.24473801  0.18769881    -0.51300
O207        O  0.15479019  0.16897037  0.15612972    -0.74500
O208        O  0.15483587  0.26586792  0.15937931    -0.81300
O209        O  0.30268320  0.14020447  0.11680584    -0.83100
O210        O  0.11821387  0.30401734  0.11418475    -0.78700
O211        O  0.26067603  0.17464742  0.16118194    -0.90300
O212        O  0.11566170  0.13695718  0.10855440    -0.76300
O213        O  0.14220757  0.22082475  0.08803427    -0.85800
O214        O  0.20874760  0.15560441  0.08888457    -0.85500
O215        O  0.21273980  0.28336717  0.09483878    -0.72200
O216        O  0.27511318  0.22155288  0.09457612    -0.84300
Zr217      Zr  0.22161601  0.22897820  0.97803937     2.26400
Zr218      Zr  0.14976908  0.28491425  0.05289214     2.06300
Zr219      Zr  0.27639412  0.16035997  0.05397655     2.10000
Zr220      Zr  0.14574245  0.16006377  0.04798355     1.78800
O221        O  0.35715685  0.15221801  0.05563287    -0.93200
O222        O  0.06652384  0.17634228  0.04154761    -0.41000
O223        O  0.21361465  0.16340006  0.01203790    -0.77600
O224        O  0.15215839  0.22394952  0.01173132    -0.96300
O225        O  0.21788429  0.28999084  0.01839418    -0.89600
O226        O  0.28436242  0.22517607  0.01961365    -0.92400
C227        C  0.12483033  0.14387331  0.14367995     1.01300
C228        C  0.29268159  0.14970341  0.15133709     1.14300
C229        C  0.12605139  0.29383730  0.14891119     1.05000
O230        O  0.06892468  0.28899220  0.04673064    -0.94600
O231        O  0.12763437  0.30987086  0.99084470    -0.90300
O232        O  0.17173992  0.27872783  0.94578923    -0.83500
C233        C  0.14025157  0.30391941  0.95649815     1.11700
O234        O  0.31567583  0.31587071  0.11635766    -0.96600
Zr235      Zr  0.28055384  0.28610386  0.05959124     1.88900
O236        O  0.27362914  0.27838209  0.94936320    -0.73200
O237        O  0.15775900  0.36186276  0.05701025    -0.52500
O238        O  0.26785380  0.36254612  0.06534871    -0.97100
O239        O  0.36104208  0.27462235  0.06191364    -0.54400
O240        O  0.30364558  0.31424024  0.99930388    -0.73700
C241        C  0.29854039  0.30739998  0.96362789     0.98600
O242        O  0.19002959  0.19854214  0.92007490    -0.62500
O243        O  0.26226586  0.08422631  0.05114929    -0.57300
O244        O  0.27384119  0.18031312  0.94688252    -0.94000
O245        O  0.30718993  0.14021938  0.99286868    -0.92500
O246        O  0.15506208  0.08308138  0.04614031    -0.92800
O247        O  0.11313762  0.12534749  0.99257857    -0.91600
C248        C  0.30123752  0.15140759  0.95821853     1.17500
H249        H  0.20837344  0.12990230  0.10383301     0.33400
H250        H  0.12760176  0.22502574  0.99386874     0.44300
H251        H  0.31197307  0.22509289  0.00558713     0.37800
H252        H  0.21164653  0.30693193  0.11251991     0.34300
H253        H  0.05134653  0.14887389  0.04543662     0.26100
H254        H  0.12686441  0.37289074  0.05917483     0.32000
H255        H  0.29159020  0.37579050  0.05004188     0.37900
H256        H  0.12628233  0.07173069  0.05510709     0.32400
H257        H  0.25090406  0.07913382  0.02506998     0.31200
H258        H  0.36251354  0.12112729  0.05645037     0.32900
H259        H  0.37146976  0.27816841  0.03544736     0.31900
H260        H  0.11906219  0.14492868  0.97125362     0.35900
H261        H  0.19444424  0.16744466  0.92255311     0.28600
H262        H  0.21385276  0.23826892  0.20729641     0.32900
H263        H  0.33684548  0.33748695  0.10714377     0.35700
H264        H  0.29220617  0.07076438  0.05141851     0.28300
H265        H  0.15739745  0.20244816  0.92262889     0.41200
H266        H  0.06121475  0.26714871  0.02749561     0.31200
H267        H  0.05903592  0.19326674  0.06449366     0.38900
H268        H  0.36476715  0.24386813  0.06701424     0.30700
H269        H  0.17116595  0.36727042  0.08231394     0.30800
H270        H  0.23578013  0.27609382  0.18526558     0.31000
Zr271      Zr  0.20842636  0.69869846  0.03894797     2.17500
O272        O  0.23337832  0.62556715  0.04869534    -0.51300
O273        O  0.15155810  0.67426041  0.99467243    -0.74500
O274        O  0.17029543  0.66306797  0.09236083    -0.81300
O275        O  0.29551191  0.71942031  0.96158381    -0.83100
O276        O  0.13275523  0.71332621  0.12648443    -0.78700
O277        O  0.26152143  0.66648209  0.99399668    -0.90300
O278        O  0.11652639  0.73181324  0.96876482    -0.76300
O279        O  0.14656311  0.74500181  0.05046882    -0.85800
O280        O  0.20539959  0.74869267  0.98800729    -0.85500
O281        O  0.22489666  0.73241174  0.09872307    -0.72200
O282        O  0.27847651  0.73512230  0.03949584    -0.84300
Zr283      Zr  0.23131931  0.86797652  0.06189708     2.26400
Zr284      Zr  0.16375356  0.78031515  0.10881931     2.06300
Zr285      Zr  0.27394097  0.78631305  0.98973387     2.10000
Zr286      Zr  0.14462574  0.79554428  0.00043732     1.78800
O287        O  0.35460404  0.78178689  0.98288381    -0.93200
O288        O  0.06658686  0.79495463  0.01988939    -0.41000
O289        O  0.21343811  0.83431935  0.00197498    -0.77600
O290        O  0.16042470  0.83199276  0.05919426    -0.96300
O291        O  0.23315716  0.81660192  0.11133836    -0.89600
O292        O  0.29161115  0.82033883  0.04860663    -0.92400
C293        C  0.12387191  0.69164417  0.97148073     1.01300
C294        C  0.28831316  0.68008353  0.96822688     1.14300
C295        C  0.14397787  0.67483024  0.11950905     1.05000
O296        O  0.08348851  0.79183739  0.11288746    -0.94600
O297        O  0.15118649  0.84465618  0.14401304    -0.90300
O298        O  0.18905900  0.89851372  0.11581318    -0.83500
C299        C  0.16302396  0.88341408  0.14151000     1.11700
O300        O  0.32561573  0.70131862  0.11669141    -0.96600
Zr301      Zr  0.29373838  0.76981770  0.09855478     1.88900
O302        O  0.28933135  0.89199504  0.10646293    -0.73200
O303        O  0.17566791  0.76296188  0.17558668    -0.52500
O304        O  0.29203948  0.76150941  0.16742601    -0.97100
O305        O  0.37189693  0.76373681  0.08040537    -0.54400
O306        O  0.32673042  0.83266164  0.12555898    -0.73700
C307        C  0.31996551  0.87291881  0.12589591     0.98600
O308        O  0.19990485  0.93715437  0.04475156    -0.62500
O309        O  0.25850695  0.79651314  0.92224878    -0.57300
O310        O  0.27776604  0.90430363  0.01397942    -0.94000
O311        O  0.30143529  0.85444389  0.97115492    -0.92500
O312        O  0.14981143  0.81468120  0.93358940    -0.92800
O313        O  0.10211988  0.85844678  0.98181413    -0.91600
C314        C  0.29902370  0.89251797  0.98376300     1.17500
H315        H  0.20241969  0.73471005  0.96377977     0.33400
H316        H  0.13688289  0.85223039  0.06410818     0.44300
H317        H  0.31888835  0.83499982  0.04691341     0.37800
H318        H  0.22664782  0.71189559  0.11909152     0.34300
H319        H  0.04951118  0.79038607  0.99609324     0.26100
H320        H  0.19482626  0.78590247  0.18567115     0.32000
H321        H  0.28195153  0.78942298  0.17746705     0.37900
H322        H  0.15916589  0.78819429  0.92045226     0.32400
H323        H  0.28824765  0.79758138  0.91018806     0.31200
H324        H  0.35972959  0.77779807  0.95528729     0.32900
H325        H  0.38056099  0.79250986  0.07210519     0.31900
H326        H  0.12265905  0.88243116  0.98638377     0.35900
H327        H  0.20028316  0.93786099  0.01661001     0.28600
H328        H  0.20625420  0.60796051  0.04677244     0.32900
H329        H  0.35034031  0.70799004  0.13439736     0.35700
H330        H  0.24577740  0.76930603  0.91329025     0.28300
H331        H  0.16784219  0.93519031  0.05102224     0.41200
H332        H  0.07782598  0.81962380  0.10060540     0.31200
H333        H  0.06294469  0.76815481  0.03416746     0.38900
H334        H  0.37165819  0.74653500  0.05674294     0.30700
H335        H  0.14638384  0.76781598  0.18782597     0.30800
H336        H  0.24266509  0.62392585  0.07570849     0.31000
Zr337      Zr  0.22084157  0.77895836  0.52368076     2.17500
O338        O  0.26159003  0.75384708  0.46791298    -0.51300
O339        O  0.16881358  0.82710923  0.49359488    -0.74500
O340        O  0.17562000  0.72858161  0.48785214    -0.81300
O341        O  0.30561197  0.86351422  0.54194917    -0.83100
O342        O  0.13594840  0.68989267  0.53031175    -0.78700
O343        O  0.26662836  0.83283408  0.49369218    -0.90300
O344        O  0.13141102  0.86296529  0.54020208    -0.76300
O345        O  0.15401388  0.77454719  0.55995626    -0.85800
O346        O  0.21946514  0.83912674  0.56509593    -0.85500
O347        O  0.22570824  0.71286740  0.55732229    -0.72200
O348        O  0.28753718  0.77367016  0.56143006    -0.84300
Zr349      Zr  0.22438662  0.76500688  0.67554141     2.26400
Zr350      Zr  0.15944238  0.70973763  0.59483176     2.06300
Zr351      Zr  0.28495306  0.83378615  0.60318145     2.10000
Zr352      Zr  0.15361005  0.83430630  0.60152398     1.78800
O353        O  0.36572817  0.82635467  0.60380282    -0.93200
O354        O  0.07361310  0.82218040  0.59870767    -0.41000
O355        O  0.21882818  0.83056006  0.64090681    -0.77600
O356        O  0.15795982  0.76983278  0.63698048    -0.96300
O357        O  0.22442657  0.70459545  0.63419913    -0.89600
O358        O  0.29038721  0.76925826  0.63813626    -0.92400
C359        C  0.14097156  0.85522058  0.50532311     1.01300
C360        C  0.29457707  0.86007730  0.50668789     1.14300
C361        C  0.14715664  0.69971168  0.49611758     1.05000
O362        O  0.07831124  0.70890023  0.59709921    -0.94600
O363        O  0.13408540  0.68229484  0.65563023    -0.90300
O364        O  0.17232722  0.71492708  0.70364617    -0.83500
C365        C  0.14315400  0.68870149  0.69092763     1.11700
O366        O  0.32366137  0.67698528  0.54073288    -0.96600
Zr367      Zr  0.29010298  0.70891583  0.59720920     1.88900
O368        O  0.27621326  0.71576073  0.70683695    -0.73200
O369        O  0.16759530  0.63278798  0.59013851    -0.52500
O370        O  0.27442290  0.63301651  0.59686600    -0.97100
O371        O  0.37100303  0.71425712  0.59512466    -0.54400
O372        O  0.31608757  0.68549388  0.65884708    -0.73700
C373        C  0.30708012  0.69089341  0.69418342     0.98600
O374        O  0.18585123  0.79418071  0.73108451    -0.62500
O375        O  0.28837624  0.91097691  0.60896802    -0.57300
O376        O  0.27021339  0.81662324  0.71049775    -0.94000
O377        O  0.30333674  0.85900470  0.66663051    -0.92500
O378        O  0.16482281  0.91041333  0.60959105    -0.92800
O379        O  0.11404210  0.86072623  0.65724833    -0.91600
C380        C  0.29504551  0.84802249  0.70095675     1.17500
H381        H  0.21913199  0.86554563  0.55121131     0.33400
H382        H  0.13195201  0.76849493  0.65303587     0.44300
H383        H  0.31674052  0.76959638  0.65397348     0.37800
H384        H  0.22673440  0.68937887  0.53953314     0.34300
H385        H  0.06036773  0.85037644  0.59296491     0.26100
H386        H  0.13678557  0.62230376  0.58687758     0.32000
H387        H  0.30056097  0.61961613  0.60937515     0.37900
H388        H  0.13696847  0.92374425  0.60007210     0.32400
H389        H  0.31730338  0.91895033  0.59768172     0.31200
H390        H  0.37660490  0.85488537  0.61113401     0.32900
H391        H  0.38214862  0.68697266  0.60557886     0.31900
H392        H  0.13536040  0.85664124  0.67849178     0.35900
H393        H  0.18972810  0.82536230  0.72963684     0.28600
H394        H  0.24145252  0.75914317  0.44603812     0.32900
H395        H  0.33969144  0.65123753  0.54964915     0.35700
H396        H  0.26567172  0.92189465  0.59091414     0.28300
H397        H  0.15371697  0.79025869  0.72575686     0.41200
H398        H  0.06840951  0.72154860  0.57273767     0.31200
H399        H  0.06902950  0.80536289  0.57517519     0.38900
H400        H  0.37855963  0.73560939  0.61482489     0.30700
H401        H  0.18195094  0.62750816  0.56523792     0.30800
H402        H  0.26282675  0.72251300  0.47040029     0.31000
Zr403      Zr  0.23036507  0.23263837  0.67052874     2.17500
O404        O  0.19684538  0.20715528  0.72918831    -0.51300
O405        O  0.28346252  0.28110401  0.69937789    -0.74500
O406        O  0.27819836  0.17962665  0.70158888    -0.81300
O407        O  0.13894305  0.31571609  0.65750694    -0.83100
O408        O  0.30914535  0.13800322  0.65532324    -0.78700
O409        O  0.17882980  0.28064822  0.70304361    -0.90300
O410        O  0.32126889  0.30984495  0.64999625    -0.76300
O411        O  0.29348995  0.22579237  0.62978191    -0.85800
O412        O  0.23000228  0.29351132  0.63018212    -0.85500
O413        O  0.21974429  0.16755488  0.63576059    -0.72200
O414        O  0.16105011  0.23083857  0.63627900    -0.84300
Zr415      Zr  0.21329061  0.22004746  0.51905423     2.26400
Zr416      Zr  0.28252841  0.16208647  0.59388768     2.06300
Zr417      Zr  0.16180825  0.29111531  0.59533975     2.10000
Zr418      Zr  0.29228697  0.28594926  0.58925168     1.78800
O419        O  0.08075479  0.29175712  0.59750315    -0.93200
O420        O  0.37165681  0.26994597  0.58443358    -0.41000
O421        O  0.22425500  0.28510327  0.55365811    -0.77600
O422        O  0.28323924  0.22220931  0.55255085    -0.96300
O423        O  0.21394893  0.15966486  0.55947636    -0.89600
O424        O  0.15046330  0.22733914  0.55993050    -0.92400
C425        C  0.31349215  0.30539388  0.68563268     1.01300
C426        C  0.14910012  0.30757836  0.69211358     1.14300
C427        C  0.30298135  0.14859697  0.69014162     1.05000
O428        O  0.36336060  0.16198039  0.58758957    -0.94600
O429        O  0.30071127  0.13260397  0.53191974    -0.90300
O430        O  0.25423292  0.16222931  0.48786081    -0.83500
C431        C  0.28460902  0.13551488  0.49813529     1.11700
O432        O  0.11625117  0.13942711  0.65732963    -0.96600
Zr433      Zr  0.15152565  0.16684110  0.60021913     1.88900
O434        O  0.15584691  0.17514992  0.49201234    -0.73200
O435        O  0.27648034  0.08490894  0.59650658    -0.52500
O436        O  0.16469727  0.09056591  0.60517681    -0.97100
O437        O  0.07140581  0.17964835  0.60385714    -0.54400
O438        O  0.12229698  0.13988599  0.54042098    -0.73700
C439        C  0.12843789  0.14784640  0.50511778     0.98600
O440        O  0.24834307  0.24375327  0.46039246    -0.62500
O441        O  0.16566016  0.36849489  0.59315006    -0.57300
O442        O  0.16901523  0.27518680  0.48748032    -0.94000
O443        O  0.13927985  0.31729126  0.53377673    -0.92500
O444        O  0.28453491  0.36305321  0.58657511    -0.92800
O445        O  0.32559947  0.31708888  0.53285683    -0.91600
C446        C  0.14556249  0.30727049  0.49882274     1.17500
H447        H  0.23168520  0.31960160  0.64471036     0.33400
H448        H  0.30756860  0.21958556  0.53473907     0.44300
H449        H  0.12303069  0.22917898  0.54557590     0.37800
H450        H  0.21952138  0.14384780  0.65311337     0.34300
H451        H  0.38660725  0.29677528  0.59161091     0.26100
H452        H  0.30731078  0.07453661  0.60088083     0.32000
H453        H  0.13809001  0.07736157  0.59351050     0.37900
H454        H  0.31246685  0.37409549  0.59780574     0.32400
H455        H  0.13430596  0.37830572  0.59510356     0.31200
H456        H  0.07238633  0.32227531  0.59768309     0.32900
H457        H  0.06296661  0.19202942  0.57900353     0.31900
H458        H  0.30677051  0.30706556  0.51150352     0.35900
H459        H  0.24871155  0.27517509  0.46217685     0.28600
H460        H  0.21912815  0.21267675  0.74941458     0.32900
H461        H  0.09685018  0.11600350  0.64855154     0.35700
H462        H  0.17945913  0.37713259  0.61756908     0.28300
H463        H  0.28010984  0.23545478  0.46295884     0.41200
H464        H  0.37480886  0.16955030  0.61315165     0.31200
H465        H  0.37797694  0.25057421  0.60592363     0.38900
H466        H  0.06807393  0.20348817  0.62214412     0.30700
H467        H  0.26064165  0.07893497  0.62052998     0.30800
H468        H  0.19600167  0.17580924  0.72659287     0.31000
Zr469      Zr  0.78383784  0.77806737  0.12723769     2.17500
O470        O  0.75422253  0.75828899  0.18921233    -0.51300
O471        O  0.84065951  0.82261390  0.15475214    -0.74500
O472        O  0.82873919  0.72302006  0.15803682    -0.81300
O473        O  0.70106716  0.87012707  0.11368403    -0.83100
O474        O  0.86176175  0.68250647  0.11231038    -0.78700
O475        O  0.73193533  0.82675372  0.15846672    -0.90300
O476        O  0.88259514  0.85014814  0.10718130    -0.76300
O477        O  0.84638797  0.76683644  0.08688878    -0.85800
O478        O  0.78871161  0.83911931  0.08764357    -0.85500
O479        O  0.76896479  0.71314758  0.09367543    -0.72200
O480        O  0.71481983  0.78170412  0.09297182    -0.84300
Zr481      Zr  0.76623329  0.76632215  0.97622544     2.26400
Zr482      Zr  0.83081260  0.70373532  0.05144216     2.06300
Zr483      Zr  0.72106732  0.84177344  0.05188791     2.10000
Zr484      Zr  0.85056350  0.82725085  0.04701624     1.78800
O485        O  0.64114688  0.85469301  0.05640340    -0.93200
O486        O  0.92883009  0.80592121  0.04548398    -0.41000
O487        O  0.78291605  0.83100981  0.01023422    -0.77600
O488        O  0.83598259  0.76428930  0.01067120    -0.96300
O489        O  0.76248828  0.70597065  0.01682707    -0.89600
O490        O  0.70467744  0.77797710  0.01768189    -0.92400
C491        C  0.87278197  0.84501825  0.14228338     1.01300
C492        C  0.70696981  0.85809276  0.14812927     1.14300
C493        C  0.85493839  0.69279540  0.14718956     1.05000
O494        O  0.90985522  0.68646679  0.04645902    -0.94600
O495        O  0.85162135  0.67767909  0.98887361    -0.90300
O496        O  0.81356953  0.71475674  0.94343166    -0.83500
C497        C  0.84165014  0.68622512  0.95423666     1.11700
O498        O  0.65860448  0.70420532  0.11570349    -0.96600
Zr499      Zr  0.70108501  0.71786792  0.05810622     1.88900
O500        O  0.71205881  0.71692653  0.94875941    -0.73200
O501        O  0.80874523  0.62945871  0.05530464    -0.52500
O502        O  0.70091138  0.64292162  0.07535037    -0.97100
O503        O  0.62213513  0.73490043  0.04980373    -0.54400
O504        O  0.68225366  0.68255646  0.99924705    -0.73700
C505        C  0.68765138  0.68787771  0.96344247     0.98600
O506        O  0.79777495  0.79455879  0.91763882    -0.62500
O507        O  0.73918510  0.91678003  0.04567320    -0.57300
O508        O  0.71612435  0.81738197  0.94529679    -0.94000
O509        O  0.69262765  0.86429755  0.99070367    -0.92500
O510        O  0.84780078  0.90457229  0.04301513    -0.92800
O511        O  0.88932961  0.85191712  0.99070977    -0.91600
C512        C  0.69410997  0.85037083  0.95645009     1.17500
H513        H  0.79214601  0.86479752  0.10250804     0.33400
H514        H  0.86045244  0.76056576  0.99316052     0.44300
H515        H  0.67721347  0.78076144  0.00344572     0.37800
H516        H  0.76725912  0.68971071  0.11124591     0.34300
H517        H  0.94554233  0.83236373  0.05062907     0.26100
H518        H  0.83442288  0.61328058  0.04488836     0.32000
H519        H  0.67499197  0.63085330  0.06169322     0.37900
H520        H  0.84460345  0.91472607  0.06956508     0.32400
H521        H  0.70996610  0.93134421  0.04307739     0.31200
H522        H  0.63783812  0.88603794  0.05587371     0.32900
H523        H  0.61539954  0.72927429  0.02267858     0.31900
H524        H  0.87035739  0.84256975  0.96920523     0.35900
H525        H  0.79461346  0.82584013  0.91978126     0.28600
H526        H  0.77832278  0.76448048  0.20769139     0.32900
H527        H  0.63347679  0.68589821  0.10785011     0.35700
H528        H  0.75016742  0.92552558  0.07108520     0.28300
H529        H  0.83031255  0.78961663  0.91983013     0.41200
H530        H  0.92312617  0.71147339  0.03394251     0.31200
H531        H  0.93331252  0.78858283  0.06864117     0.38900
H532        H  0.62008544  0.76619896  0.05247335     0.30700
H533        H  0.80884290  0.62273093  0.08277790     0.30800
H534        H  0.75182842  0.72690721  0.18883514     0.31000
Zr535      Zr  0.76546903  0.76380427  0.67358531     2.17500
O536        O  0.79933641  0.79197699  0.73141611    -0.51300
O537        O  0.71235834  0.71580978  0.70327023    -0.74500
O538        O  0.71367381  0.81266235  0.70542645    -0.81300
O539        O  0.86286357  0.68737110  0.66026399    -0.83100
O540        O  0.67786410  0.85074353  0.65946031    -0.78700
O541        O  0.81669908  0.71541745  0.70542529    -0.90300
O542        O  0.67726210  0.68263799  0.65428158    -0.76300
O543        O  0.70170423  0.76432804  0.63323631    -0.85800
O544        O  0.77174241  0.70238784  0.63382971    -0.85500
O545        O  0.77043995  0.82924402  0.63867418    -0.72200
O546        O  0.83375548  0.77187874  0.63838677    -0.84300
Zr547      Zr  0.77836489  0.77474423  0.52214819     2.26400
Zr548      Zr  0.70664637  0.82873141  0.59790568     2.06300
Zr549      Zr  0.83872781  0.71059774  0.59805584     2.10000
Zr550      Zr  0.70835864  0.70311117  0.59369470     1.78800
O551        O  0.91945033  0.71731862  0.60091265    -0.93200
O552        O  0.62771642  0.70659960  0.58570271    -0.41000
O553        O  0.77510119  0.70929897  0.55694479    -0.77600
O554        O  0.71057790  0.76721522  0.55757937    -0.96300
O555        O  0.77304702  0.83655422  0.56135320    -0.89600
O556        O  0.84266914  0.77445168  0.56207076    -0.92400
C557        C  0.68316260  0.69007423  0.68982718     1.01300
C558        C  0.84939643  0.69183521  0.69457825     1.14300
C559        C  0.68542880  0.84094205  0.69426994     1.05000
O560        O  0.62564502  0.82630705  0.59477088    -0.94600
O561        O  0.68064790  0.85222776  0.53627872    -0.90300
O562        O  0.72202773  0.81875172  0.49073014    -0.83500
C563        C  0.69017690  0.84356727  0.50157328     1.11700
O564        O  0.86681953  0.87023270  0.65820227    -0.96600
Zr565      Zr  0.83694593  0.83588691  0.60133453     1.88900
O566        O  0.82862151  0.82518566  0.49299450    -0.73200
O567        O  0.71121414  0.90588616  0.60143192    -0.52500
O568        O  0.81905740  0.91168476  0.60251597    -0.97100
O569        O  0.91790131  0.82894578  0.60530534    -0.54400
O570        O  0.86427089  0.86140365  0.54018716    -0.73700
C571        C  0.85646640  0.85294119  0.50501965     0.98600
O572        O  0.74575287  0.74555725  0.46389806    -0.62500
O573        O  0.84153831  0.63313344  0.59667667    -0.57300
O574        O  0.82957021  0.72529927  0.49049222    -0.94000
O575        O  0.86395352  0.68594007  0.53616460    -0.92500
O576        O  0.72651892  0.62748257  0.59611713    -0.92800
O577        O  0.67814239  0.66683806  0.53806000    -0.91600
C578        C  0.85629183  0.69545718  0.50126249     1.17500
H579        H  0.77248751  0.67659695  0.64862707     0.33400
H580        H  0.68541404  0.76687346  0.54039517     0.44300
H581        H  0.86973790  0.77473968  0.54729998     0.37800
H582        H  0.76873794  0.85313214  0.65597835     0.34300
H583        H  0.61683868  0.67882912  0.59485877     0.26100
H584        H  0.72582376  0.91430609  0.57744745     0.32000
H585        H  0.81622531  0.92010546  0.57551833     0.37900
H586        H  0.70068063  0.61429457  0.60876855     0.32400
H587        H  0.87356416  0.62593239  0.59949521     0.31200
H588        H  0.93111969  0.69234494  0.58676095     0.32900
H589        H  0.92722959  0.81629883  0.58073226     0.31900
H590        H  0.70394074  0.66284675  0.52089247     0.35900
H591        H  0.75619061  0.71569956  0.46201887     0.28600
H592        H  0.77610830  0.79020692  0.75126347     0.32900
H593        H  0.88806794  0.89174498  0.64894798     0.35700
H594        H  0.82790989  0.62397212  0.62086491     0.28300
H595        H  0.71358232  0.74275487  0.46948657     0.41200
H596        H  0.61903008  0.80506117  0.57471040     0.31200
H597        H  0.61752292  0.72727871  0.60519427     0.38900
H598        H  0.92319685  0.80610340  0.62410689     0.30700
H599        H  0.68001132  0.91589612  0.59861802     0.30800
H600        H  0.80273335  0.82277267  0.72657791     0.29700
Zr601      Zr  0.78360209  0.21070110  0.12133783     2.17500
O602        O  0.75796733  0.23901431  0.18225776    -0.51300
O603        O  0.83451823  0.16154124  0.15125767    -0.74500
O604        O  0.72940268  0.16459276  0.15161086    -0.81300
O605        O  0.86352184  0.30376486  0.10849326    -0.83100
O606        O  0.69104756  0.12875826  0.10600053    -0.78700
O607        O  0.82512682  0.26703286  0.15303027    -0.90300
O608        O  0.87040831  0.12413869  0.10486731    -0.76300
O609        O  0.78205228  0.14906538  0.08170572    -0.85800
O610        O  0.84937492  0.21233876  0.08353812    -0.85500
O611        O  0.71542623  0.21605519  0.08586941    -0.72200
O612        O  0.77916893  0.27545264  0.08624146    -0.84300
Zr613      Zr  0.77388366  0.22267875  0.96983032     2.26400
Zr614      Zr  0.71553492  0.15520492  0.04460191     2.06300
Zr615      Zr  0.84398987  0.27569425  0.04673502     2.10000
Zr616      Zr  0.84676580  0.15177417  0.04318800     1.78800
O617        O  0.84678514  0.35303270  0.04657423    -0.93200
O618        O  0.83769389  0.07494418  0.03928765    -0.41000
O619        O  0.84232927  0.21527905  0.00539462    -0.77600
O620        O  0.78039015  0.15712264  0.00510550    -0.96300
O621        O  0.70936221  0.21954963  0.00903554    -0.89600
O622        O  0.77679757  0.28261993  0.01108977    -0.92400
C623        C  0.86162160  0.13272259  0.13979614     1.01300
C624        C  0.85181852  0.29668852  0.14289517     1.14300
C625        C  0.69983116  0.13765608  0.14092600     1.05000
O626        O  0.71547714  0.07781020  0.04134893    -0.94600
O627        O  0.69161973  0.13284831  0.98173630    -0.90300
O628        O  0.72502730  0.17346659  0.93662257    -0.83500
C629        C  0.69899924  0.14360852  0.94720715     1.11700
O630        O  0.67274202  0.30592585  0.10578896    -0.96600
Zr631      Zr  0.71221014  0.27997927  0.04967759     1.88900
O632        O  0.72243049  0.27481419  0.94064502    -0.73200
O633        O  0.63453384  0.16074899  0.04421803    -0.52500
O634        O  0.63226708  0.26945316  0.04247768    -0.97100
O635        O  0.72401266  0.35598593  0.05876426    -0.54400
O636        O  0.69152585  0.31131928  0.99000081    -0.73700
C637        C  0.69771824  0.30484300  0.95444725     0.98600
O638        O  0.80735307  0.19033442  0.91340036    -0.62500
O639        O  0.92464546  0.26525687  0.04757232    -0.57300
O640        O  0.82389075  0.27278709  0.93908142    -0.94000
O641        O  0.86632663  0.30310834  0.98556075    -0.92500
O642        O  0.92630069  0.16638525  0.04236793    -0.92800
O643        O  0.88320372  0.11783127  0.98905192    -0.91600
C644        C  0.85422916  0.29832378  0.95085870     1.17500
H645        H  0.87596677  0.21242398  0.09902896     0.33400
H646        H  0.78028107  0.13331403  0.98769239     0.44300
H647        H  0.77734823  0.30886173  0.99697992     0.37800
H648        H  0.69007114  0.21555737  0.10267982     0.34300
H649        H  0.86745346  0.06297666  0.04551521     0.26100
H650        H  0.62416497  0.13270962  0.05313123     0.32000
H651        H  0.61990595  0.29791754  0.03639242     0.37900
H652        H  0.94064604  0.13957986  0.05084171     0.32400
H653        H  0.93448035  0.26979072  0.02107085     0.31200
H654        H  0.87895069  0.35979242  0.04725532     0.32900
H655        H  0.73894818  0.36553696  0.03527817     0.31900
H656        H  0.87854840  0.13790003  0.96776771     0.35900
H657        H  0.83926876  0.19798974  0.91451020     0.28600
H658        H  0.76403607  0.21638639  0.20111555     0.32900
H659        H  0.65168590  0.32794706  0.09643607     0.35700
H660        H  0.93637351  0.29000411  0.06181611     0.28300
H661        H  0.80747151  0.15939521  0.91852494     0.41200
H662        H  0.74360826  0.07011800  0.02831168     0.31200
H663        H  0.81910310  0.06774215  0.06151957     0.38900
H664        H  0.74738981  0.35784953  0.07863009     0.30700
H665        H  0.62727043  0.18058599  0.06527735     0.30800
H666        H  0.72507418  0.24070658  0.18024279     0.31000
Zr667      Zr  0.76684170  0.22610982  0.67497130     2.17500
O668        O  0.79709547  0.19759183  0.73409274    -0.51300
O669        O  0.71483291  0.27699467  0.70398749    -0.74500
O670        O  0.81810293  0.27717939  0.70469368    -0.81300
O671        O  0.68924620  0.13080796  0.66126131    -0.83100
O672        O  0.85518473  0.31190552  0.65780058    -0.78700
O673        O  0.71894995  0.17388147  0.70691786    -0.90300
O674        O  0.67518289  0.30443328  0.65469151    -0.76300
O675        O  0.76646482  0.28606539  0.63376687    -0.85800
O676        O  0.70263274  0.21990017  0.63511697    -0.85500
O677        O  0.83531680  0.22202854  0.63919778    -0.72200
O678        O  0.77667649  0.16064875  0.63985035    -0.84300
Zr679      Zr  0.77813864  0.21331299  0.52300231     2.26400
Zr680      Zr  0.83359059  0.28210711  0.59748453     2.06300
Zr681      Zr  0.71241223  0.15558240  0.59952543     2.10000
Zr682      Zr  0.70257629  0.27981919  0.59429595     1.78800
O683        O  0.71967855  0.07843502  0.60185355    -0.93200
O684        O  0.70950169  0.35693577  0.59268213    -0.41000
O685        O  0.70999518  0.21575972  0.55821925    -0.77600
O686        O  0.76914391  0.27873451  0.55728999    -0.96300
O687        O  0.84321163  0.21823545  0.56159490    -0.89600
O688        O  0.77912225  0.15250220  0.56325671    -0.92400
C689        C  0.68390817  0.30095495  0.69019030     1.01300
C690        C  0.69476989  0.14234781  0.69589693     1.14300
C691        C  0.84603054  0.30491788  0.69267187     1.05000
O692        O  0.82866403  0.35939249  0.59489792    -0.94600
O693        O  0.85895154  0.30629517  0.53607361    -0.90300
O694        O  0.82365386  0.26666768  0.49113322    -0.83500
C695        C  0.84992467  0.29682730  0.50139430     1.11700
O696        O  0.88539695  0.13336129  0.65756691    -0.96600
Zr697      Zr  0.84348137  0.15809886  0.60223482     1.88900
O698        O  0.82969621  0.16384383  0.49390844    -0.73200
O699        O  0.91473776  0.27851105  0.59986695    -0.52500
O700        O  0.92257448  0.17430732  0.59801107    -0.97100
O701        O  0.83750207  0.08140365  0.61045398    -0.54400
O702        O  0.86582472  0.12797296  0.54109679    -0.73700
C703        C  0.85674826  0.13528627  0.50601739     0.98600
O704        O  0.74406505  0.23764152  0.46380591    -0.62500
O705        O  0.63124633  0.15539853  0.59631565    -0.57300
O706        O  0.72625953  0.16499868  0.49226993    -0.94000
O707        O  0.68963759  0.12819301  0.53790453    -0.92500
O708        O  0.62358149  0.26397231  0.58786079    -0.92800
O709        O  0.66485688  0.31211015  0.54011733    -0.91600
C710        C  0.69830569  0.13673843  0.50302192     1.17500
H711        H  0.67556567  0.21905406  0.64994182     0.33400
H712        H  0.76826456  0.30255429  0.54004364     0.44300
H713        H  0.77968084  0.12641023  0.54865732     0.37800
H714        H  0.86046820  0.22403253  0.65629108     0.34300
H715        H  0.67981517  0.36793844  0.60030578     0.26100
H716        H  0.92433964  0.30855402  0.59985301     0.32000
H717        H  0.93616476  0.14930593  0.58519323     0.37900
H718        H  0.60961253  0.27510014  0.61138446     0.32400
H719        H  0.62294769  0.12540560  0.60063423     0.31200
H720        H  0.68894794  0.06805228  0.60559934     0.32900
H721        H  0.86309354  0.06918130  0.59631683     0.31900
H722        H  0.68276957  0.30318032  0.51783600     0.35900
H723        H  0.73948991  0.26864171  0.46720921     0.28600
H724        H  0.79161140  0.21992208  0.75350485     0.32900
H725        H  0.90761350  0.11265910  0.64770721     0.35700
H726        H  0.62118640  0.17057820  0.61950816     0.28300
H727        H  0.76749717  0.23490105  0.44416269     0.41200
H728        H  0.80717437  0.36552349  0.57417234     0.31200
H729        H  0.72916752  0.36395665  0.61444794     0.38900
H730        H  0.81110032  0.07315977  0.59527309     0.30700
H731        H  0.92214197  0.26817186  0.62569925     0.30800
H732        H  0.82981446  0.19717309  0.73051373     0.31000
O733        O  0.90802942  0.07469726  0.25949935    -0.75300
O734        O  0.94858165  0.03694005  0.21584758    -0.54200
C735        C  0.91962978  0.06518582  0.22521279     0.78400
O736        O  0.07428378  0.08892271  0.38997343    -0.59900
O737        O  0.04097067  0.04601668  0.43362880    -0.52900
C738        C  0.06562313  0.07747619  0.42419489     0.70500
O739        O  0.07373424  0.08969147  0.26163087    -0.74400
O740        O  0.03942724  0.04756244  0.21746219    -0.55000
C741        C  0.06416035  0.07871095  0.22728899     0.76500
O742        O  0.90255398  0.07173720  0.38856730    -0.59600
O743        O  0.94572927  0.03782333  0.43291556    -0.52700
C744        C  0.91476765  0.06388816  0.42299881     0.73100
Zr745      Zr  0.92420114  0.04983486  0.32420698     2.54700
O746        O  0.90582514  0.12521393  0.32695351    -0.80100
O747        O  0.84533727  0.03276491  0.32095278    -0.93600
Zr748      Zr  0.05566783  0.06568553  0.32569121     2.64700
O749        O  0.04060071  0.14188119  0.32401766    -0.98500
O750        O  0.13614510  0.07496347  0.32502751    -0.80600
O751        O  0.99027745  0.05850168  0.28846748    -0.83900
O752        O  0.98961300  0.05843271  0.36144457    -2.18600
O753        O  0.91731978  0.90417625  0.38790221    -0.67300
O754        O  0.95128348  0.94606970  0.43246940    -0.51900
C755        C  0.92477059  0.91611307  0.42242439     0.71400
O756        O  0.10363197  0.92852060  0.26061903    -0.60200
O757        O  0.05848990  0.96041380  0.21659773    -0.52200
C758        C  0.09327109  0.93899001  0.22625506     0.73200
O759        O  0.09359652  0.91703848  0.38861596    -0.71600
O760        O  0.04962414  0.95062319  0.43264295    -0.50300
C761        C  0.08079630  0.92468126  0.42283335     0.74600
O762        O  0.92556355  0.89999623  0.25941551    -0.67000
O763        O  0.96042664  0.94213844  0.21609049    -0.54200
C764        C  0.93566451  0.91084042  0.22531701     0.73000
Zr765      Zr  0.94112436  0.92457761  0.32392090     2.77500
O766        O  0.95273155  0.84779978  0.32526652    -0.97700
O767        O  0.86043206  0.91769158  0.32027851    -0.78500
Zr768      Zr  0.07304234  0.93984778  0.32475989     2.70100
O769        O  0.07989299  0.86286739  0.32013870    -0.79800
O770        O  0.15340324  0.94839035  0.32977706    -0.98900
Zr771      Zr  0.99983628  0.99481002  0.25269656     2.21500
Zr772      Zr  0.99798263  0.99476626  0.39733454     2.11100
O773        O  0.00677955  0.93125077  0.36086068    -2.47600
O774        O  0.00766534  0.93068517  0.28761655    -0.79600
O775        O  0.93137969  0.98715545  0.36107331    -0.71800
O776        O  0.06598917  0.00323190  0.28917290    -2.32700
O777        O  0.93199748  0.98711450  0.28705242    -2.28900
O778        O  0.06524638  0.00270028  0.36223210    -0.73500
H779        H  0.98647133  0.08298045  0.37783693     0.78500
H780        H  0.09183436  0.00716267  0.27333247     0.79600
H781        H  0.00924217  0.90666118  0.37708491     0.81800
H782        H  0.90684414  0.98435865  0.27000747     0.79400
H783        H  0.14788215  0.05210009  0.34162841     0.42400
H784        H  0.15767911  0.96788901  0.35164784     0.41400
H785        H  0.05753107  0.85460359  0.30076503     0.41100
H786        H  0.96873338  0.84220362  0.34941898     0.39000
H787        H  0.84880946  0.93881472  0.33878450     0.42100
H788        H  0.83011811  0.06079965  0.32009719     0.36900
H789        H  0.93389386  0.13890319  0.33511369     0.43000
H790        H  0.02460364  0.14822605  0.34797946     0.39500
H791        H  0.92264122  0.83592711  0.32917314     0.44400
H792        H  0.83828390  0.02152042  0.34646795     0.43100
H793        H  0.07015472  0.15519057  0.32733562     0.43200
H794        H  0.16461253  0.92050840  0.33882998     0.43600
O795        O  0.42121098  0.94020332  0.91861176    -0.75300
O796        O  0.36778984  0.97015706  0.88040111    -0.54200
C797        C  0.38069665  0.95091160  0.91084915     0.78400
O798        O  0.57574708  0.08956799  0.88834130    -0.59900
O799        O  0.62566355  0.04292903  0.86171764    -0.52900
C800        C  0.61546221  0.07598686  0.88161268     0.70500
O801        O  0.42661349  0.09338190  0.89647578    -0.74400
O802        O  0.37114406  0.05644167  0.86654433    -0.55000
C803        C  0.38543608  0.08527195  0.88950887     0.76500
O804        O  0.56830420  0.91418185  0.90252429    -0.59600
O805        O  0.62131194  0.94623033  0.86620148    -0.52700
C806        C  0.60874559  0.91983104  0.89176551     0.73100
Zr807      Zr  0.49430414  0.94288709  0.88833313     2.54700
O808        O  0.50617539  0.95007546  0.95670188    -0.80100
O809        O  0.48166808  0.86661948  0.89176304    -0.93600
Zr810      Zr  0.49955571  0.06725940  0.87635206     2.64700
O811        O  0.50340735  0.06772696  0.94560438    -0.98500
O812        O  0.49952599  0.14437220  0.87052647    -0.80600
O813        O  0.45357456  0.00728572  0.88304664    -0.83900
O814        O  0.54092800  0.00296215  0.88216808    -2.18600
O815        O  0.56273984  0.90063602  0.75856547    -0.67300
O816        O  0.61822013  0.94162863  0.78370880    -0.51900
C817        C  0.60393457  0.91040162  0.76335015     0.71400
O818        O  0.42195223  0.07996112  0.74687620    -0.60200
O819        O  0.36830342  0.04936405  0.78353842    -0.52200
C820        C  0.38137109  0.07476357  0.75724474     0.73200
O821        O  0.57088048  0.07876143  0.74976886    -0.71600
O822        O  0.62341459  0.04082236  0.78264186    -0.50300
C823        C  0.61145545  0.07002035  0.75908304     0.74600
O824        O  0.41416815  0.90779465  0.76092290    -0.67000
O825        O  0.36360282  0.95052846  0.79150510    -0.54200
C826        C  0.37417202  0.91931843  0.76915548     0.73000
Zr827      Zr  0.48980127  0.92905861  0.77644574     2.77500
O828        O  0.48604143  0.92488436  0.70734554    -0.97700
O829        O  0.48646768  0.85224168  0.78448987    -0.78500
Zr830      Zr  0.49565171  0.05369537  0.76407213     2.70100
O831        O  0.49624628  0.03403617  0.69700796    -0.79800
O832        O  0.49212544  0.12902141  0.74827406    -0.98900
Zr833      Zr  0.40786930  0.00252198  0.82771409     2.21500
Zr834      Zr  0.58111066  0.99417984  0.82406524     2.11100
O835        O  0.53649442  0.98908970  0.76791997    -2.47600
O836        O  0.44877886  0.99356062  0.77014490    -0.79600
O837        O  0.53529152  0.93329004  0.83142869    -0.71800
O838        O  0.45447316  0.06335186  0.82103295    -2.32700
O839        O  0.44812301  0.93694590  0.83358224    -2.28900
O840        O  0.54050589  0.05936348  0.81928958    -0.73500
H841        H  0.56110149  0.00447523  0.90354181     0.78500
H842        H  0.43686586  0.08913698  0.81943318     0.79600
H843        H  0.55484158  0.98576919  0.74558451     0.81800
H844        H  0.42791022  0.91350395  0.83682238     0.79400
H845        H  0.49235925  0.14966378  0.84344224     0.42400
H846        H  0.51410792  0.14279465  0.76528611     0.41400
H847        H  0.52683646  0.04032507  0.68833935     0.41100
H848        H  0.51564287  0.93427435  0.69849261     0.39000
H849        H  0.46565244  0.84798387  0.80589965     0.42100
H850        H  0.48772676  0.85930722  0.91865602     0.36900
H851        H  0.53717631  0.96013258  0.95969085     0.43000
H852        H  0.53391837  0.05774399  0.95188557     0.39500
H853        H  0.48547489  0.89403438  0.70164513     0.44400
H854        H  0.50681826  0.85370596  0.87752378     0.43100
H855        H  0.50318160  0.09822683  0.95269596     0.43200
H856        H  0.50517317  0.13100313  0.72252053     0.43600
O857        O  0.08122561  0.42435436  0.90001230    -0.75300
O858        O  0.04493380  0.37505413  0.86361066    -0.54200
C859        C  0.07260610  0.38598911  0.88971187     0.78400
O860        O  0.90188788  0.56713597  0.89456714    -0.59900
O861        O  0.94256410  0.61791783  0.86427029    -0.52900
C862        C  0.91143163  0.60588540  0.88671334     0.70500
O863        O  0.90696529  0.42346660  0.89550472    -0.74400
O864        O  0.94733907  0.37451956  0.86160350    -0.55000
C865        C  0.91760955  0.38509646  0.88611528     0.76500
O866        O  0.07703498  0.56752099  0.90650860    -0.59600
O867        O  0.04045498  0.61824252  0.87174994    -0.52700
C868        C  0.06648410  0.60632524  0.89889867     0.73100
Zr869      Zr  0.06025664  0.49656507  0.88180367     2.54700
O870        O  0.05914398  0.49080655  0.95082834    -0.80100
O871        O  0.14120420  0.49960602  0.87962651    -0.93600
Zr872      Zr  0.92861310  0.49587061  0.87882147     2.64700
O873        O  0.93253933  0.49394573  0.94801180    -0.98500
O874        O  0.84753961  0.49459876  0.88021080    -0.80600
O875        O  0.99490396  0.45462887  0.88020458    -0.83900
O876        O  0.99380887  0.53773987  0.88192738    -2.18600
O877        O  0.08604638  0.56936326  0.75111606    -0.67300
O878        O  0.04615189  0.61928998  0.78435164    -0.51900
C879        C  0.07563717  0.60795412  0.75965545     0.71400
O880        O  0.90671773  0.42752416  0.74764378    -0.60200
O881        O  0.94719675  0.37706115  0.77950595    -0.52200
C882        C  0.91668993  0.38878540  0.75595758     0.73200
O883        O  0.90681666  0.57075808  0.75173796    -0.71600
O884        O  0.94654242  0.62022952  0.78519691    -0.50300
C885        C  0.91657488  0.60918488  0.76107755     0.74600
O886        O  0.08865077  0.42640290  0.75157197    -0.67000
O887        O  0.04749948  0.37599617  0.78175309    -0.54200
C888        C  0.07843752  0.38770492  0.75905312     0.73000
Zr889      Zr  0.06331314  0.49790844  0.76860175     2.77500
O890        O  0.05787810  0.49567723  0.69948629    -0.97700
O891        O  0.14428768  0.49882934  0.76508518    -0.78500
Zr892      Zr  0.93191752  0.49842337  0.76579790     2.70100
O893        O  0.94481184  0.50161709  0.69756402    -0.79800
O894        O  0.85121329  0.49513824  0.75928798    -0.98900
Zr895      Zr  0.99657242  0.41556339  0.82200796     2.21500
Zr896      Zr  0.99606479  0.57937891  0.82538896     2.11100
O897        O  0.99740184  0.53993764  0.76725213    -2.47600
O898        O  0.99782204  0.45626079  0.76512815    -0.79600
O899        O  0.06339120  0.53859032  0.82593015    -0.71800
O900        O  0.92940203  0.45640986  0.82149810    -2.32700
O901        O  0.06322185  0.45636547  0.82463743    -2.28900
O902        O  0.92955332  0.53824481  0.82312524    -0.73500
H903        H  0.99231846  0.55560243  0.90430117     0.78500
H904        H  0.90351848  0.43837009  0.82077376     0.79600
H905        H  0.99760687  0.55870176  0.74560058     0.81800
H906        H  0.08932531  0.43818472  0.82509883     0.79400
H907        H  0.83891805  0.47973281  0.85645957     0.42400
H908        H  0.83960838  0.51346714  0.78002919     0.41400
H909        H  0.95366123  0.47228899  0.69032613     0.41100
H910        H  0.03855365  0.52015671  0.69267455     0.39000
H911        H  0.15442645  0.48852807  0.79025143     0.42100
H912        H  0.15044053  0.47293146  0.86672798     0.36900
H913        H  0.03955102  0.51438968  0.95947303     0.43000
H914        H  0.95030517  0.51906561  0.95538192     0.39500
H915        H  0.08789240  0.50376547  0.69058354     0.44400
H916        H  0.15071886  0.49577388  0.90638988     0.43100
H917        H  0.90188577  0.50091600  0.95645062     0.43200
H918        H  0.84425828  0.51085642  0.73564185     0.43600
C919        C  0.64567772  0.09544054  0.74158956    -0.13300
C920        C  0.67060515  0.11786797  0.72363878    -0.14800
C921        C  0.89349544  0.08749133  0.45282902    -0.13300
C922        C  0.87743560  0.10887938  0.47781403    -0.14800
C923        C  0.89120822  0.35614354  0.73754247    -0.13300
C924        C  0.86943861  0.33086604  0.71966711    -0.14800
C925        C  0.67541574  0.12028581  0.91859198    -0.13300
C926        C  0.65072426  0.09949295  0.89906885    -0.14800
C927        C  0.89463741  0.35142792  0.90501937    -0.13300
C928        C  0.87571935  0.32514233  0.92373494    -0.14800
C929        C  0.89927113  0.08835298  0.19471289    -0.13300
C930        C  0.88309454  0.10805186  0.16875846    -0.14800
C931        C  0.63611630  0.88483520  0.74304833    -0.13300
C932        C  0.66007060  0.86383217  0.72257312    -0.14800
C933        C  0.87228144  0.66706965  0.72252396    -0.13300
C934        C  0.89243025  0.64222967  0.74210386    -0.14800
C935        C  0.88100078  0.87598479  0.47671636    -0.13300
C936        C  0.90123592  0.89437444  0.45214889    -0.14800
C937        C  0.88559796  0.63800587  0.90568786    -0.13300
C938        C  0.86434336  0.66173948  0.92571346    -0.14800
C939        C  0.66781861  0.87341593  0.92914995    -0.13300
C940        C  0.64235906  0.89456588  0.91034391    -0.14800
C941        C  0.89871471  0.86697416  0.17007099    -0.13300
C942        C  0.91699680  0.88642594  0.19501356    -0.14800
C943        C  0.08534166  0.10208484  0.45414647    -0.13300
C944        C  0.10366909  0.12337968  0.47798253    -0.14800
C945        C  0.32592041  0.12319155  0.71801705    -0.13300
C946        C  0.34869519  0.10027982  0.73768952    -0.14800
C947        C  0.12516253  0.33131090  0.72034488    -0.13300
C948        C  0.10362497  0.35526935  0.73990868    -0.14800
C949        C  0.11886220  0.66401215  0.71820855    -0.13300
C950        C  0.09858271  0.64047144  0.73888231    -0.14800
C951        C  0.10223076  0.90132691  0.45244763    -0.13300
C952        C  0.11943834  0.88045001  0.47701849    -0.14800
C953        C  0.33937461  0.89508880  0.75074838    -0.13300
C954        C  0.31633879  0.87294598  0.73045163    -0.14800
C955        C  0.08465619  0.63863375  0.92347129    -0.13300
C956        C  0.10093352  0.66380050  0.94547594    -0.14800
C957        C  0.32310493  0.92297177  0.96145361    -0.13300
C958        C  0.34752250  0.93923235  0.93845902    -0.14800
C959        C  0.12265371  0.92562491  0.19608969    -0.13300
C960        C  0.14421527  0.91084828  0.17015890    -0.14800
C961        C  0.11716063  0.32830697  0.92838205    -0.13300
C962        C  0.09631487  0.35292747  0.90908512    -0.14800
C963        C  0.35298193  0.11000246  0.90998800    -0.13300
C964        C  0.32798184  0.12983074  0.93030528    -0.14800
C965        C  0.10048851  0.12141641  0.17171637    -0.13300
C966        C  0.08311785  0.10264521  0.19722067    -0.14800
C967        C  0.07471697  0.39471218  0.45503452    -0.13300
C968        C  0.09179105  0.39625621  0.41806373     0.08800
C969        C  0.12455056  0.36651642  0.40693690    -0.13300
C970        C  0.14078558  0.33632498  0.43261266    -0.13300
C971        C  0.12504921  0.33576291  0.47014685     0.08800
C972        C  0.09141107  0.36494435  0.48092506    -0.13300
H973        H  0.04915461  0.41708068  0.46399803     0.12800
H974        H  0.13809249  0.36721553  0.37842777     0.12800
H975        H  0.16671920  0.31446061  0.42345924     0.12800
H976        H  0.07835569  0.36517422  0.50960067     0.12800
C977        C  0.08346545  0.64600015  0.16036442    -0.13300
C978        C  0.12758956  0.64334741  0.14703719     0.08800
C979        C  0.15794713  0.61638534  0.16568223    -0.13300
C980        C  0.14458475  0.59303062  0.19740527    -0.13300
C981        C  0.10023416  0.59499339  0.21022556     0.08800
C982        C  0.06969885  0.62148130  0.19127654    -0.13300
H983        H  0.05982092  0.66757731  0.14712378     0.12800
H984        H  0.19248554  0.61498403  0.15685856     0.12800
H985        H  0.16869556  0.57287960  0.21177676     0.12800
H986        H  0.03542293  0.62349506  0.20070857     0.12800
C987        C  0.13431202  0.64487464  0.40018257    -0.13300
C988        C  0.09691754  0.61919168  0.40606704     0.08800
C989        C  0.07339153  0.62340006  0.44043994    -0.13300
C990        C  0.08865140  0.65067008  0.46925791    -0.13300
C991        C  0.12738494  0.67489721  0.46409504     0.08800
C992        C  0.14910078  0.67270674  0.42868108    -0.13300
H993        H  0.15338880  0.64186874  0.37420318     0.12800
H994        H  0.04449552  0.60387408  0.44567041     0.12800
H995        H  0.07085128  0.65187030  0.49598430     0.12800
H996        H  0.17903082  0.69082490  0.42367268     0.12800
C997        C  0.04843587  0.37224811  0.19689650    -0.13300
C998        C  0.06930461  0.37643383  0.23243252     0.08800
C999        C  0.10360077  0.34800053  0.24249534    -0.13300
C1000       C  0.11955973  0.31844099  0.21617757    -0.13300
C1001       C  0.10215728  0.31752723  0.17902808     0.08800
C1002       C  0.06505141  0.34327403  0.17017109    -0.13300
H1003       H  0.02207880  0.39403423  0.18870948     0.12800
H1004       H  0.12022737  0.35075563  0.26978085     0.12800
H1005       H  0.14783387  0.29871678  0.22406358     0.12800
H1006       H  0.05051540  0.34277455  0.14194477     0.12800
C1007       C  0.35516230  0.95776407  0.47716429    -0.13300
C1008       C  0.32690651  0.97333420  0.44822471     0.08800
C1009       C  0.29685016  0.94464441  0.43119705    -0.13300
C1010       C  0.28932962  0.90474999  0.44759938    -0.13300
C1011       C  0.31269518  0.89258751  0.48059570     0.08800
C1012       C  0.34832473  0.91780672  0.49290178    -0.13300
H1013       H  0.37910032  0.97797714  0.49124578     0.12800
H1014       H  0.27594131  0.95449643  0.40764819     0.12800
H1015       H  0.26229321  0.88552538  0.43676595     0.12800
H1016       H  0.36793488  0.90875678  0.51753560     0.12800
C1017       C  0.62884612  0.87708647  0.22960956    -0.13300
C1018       C  0.62345808  0.92147858  0.22909784     0.08800
C1019       C  0.64837782  0.94559974  0.20343565    -0.13300
C1020       C  0.67655130  0.92513832  0.17728108    -0.13300
C1021       C  0.68127499  0.88059030  0.17761894     0.08800
C1022       C  0.65795502  0.85688925  0.20450604    -0.13300
H1023       H  0.60980046  0.85798673  0.24920101     0.12800
H1024       H  0.64497746  0.97986752  0.20297583     0.12800
H1025       H  0.69436213  0.94392354  0.15664159     0.12800
H1026       H  0.66068991  0.82252144  0.20491541     0.12800
C1027       C  0.61526677  0.92069106  0.44899023    -0.13300
C1028       C  0.59797383  0.89443479  0.42025399     0.08800
C1029       C  0.61256136  0.85202471  0.41754790    -0.13300
C1030       C  0.64407109  0.83601491  0.44314442    -0.13300
C1031       C  0.66068567  0.86193702  0.47239099     0.08800
C1032       C  0.64579759  0.90428632  0.47537334    -0.13300
H1033       H  0.60526802  0.95378345  0.45080829     0.12800
H1034       H  0.60010110  0.83161677  0.39507670     0.12800
H1035       H  0.65462153  0.80309538  0.44070803     0.12800
H1036       H  0.65817719  0.92470701  0.49786659     0.12800
C1037       C  0.41808795  0.89944831  0.18897071    -0.13300
C1038       C  0.40402241  0.93705217  0.20698172     0.08800
C1039       C  0.36269201  0.95514310  0.19678418    -0.13300
C1040       C  0.33582765  0.93573157  0.16895662    -0.13300
C1041       C  0.34973515  0.89759687  0.15141569     0.08800
C1042       C  0.39140616  0.88007381  0.16154551    -0.13300
H1043       H  0.44943258  0.88450156  0.19680819     0.12800
H1044       H  0.35105397  0.98390956  0.21073771     0.12800
H1045       H  0.30360088  0.94956975  0.16225775     0.12800
H1046       H  0.40310739  0.85065078  0.14876871     0.12800
C1047       C  0.87695251  0.63766896  0.40811484    -0.13300
C1048       C  0.90955013  0.60760216  0.41871121     0.08800
C1049       C  0.92812350  0.60973030  0.45529466    -0.13300
C1050       C  0.91247059  0.63984030  0.48158204    -0.13300
C1051       C  0.87808630  0.66857772  0.47169669     0.08800
C1052       C  0.86161708  0.66805600  0.43421362    -0.13300
H1053       H  0.86213308  0.63654535  0.37999725     0.12800
H1054       H  0.95355918  0.58706635  0.46388309     0.12800
H1055       H  0.92626305  0.63964106  0.51007720     0.12800
H1056       H  0.83522906  0.68966173  0.42556728     0.12800
C1057       C  0.86271524  0.35826987  0.23507663    -0.13300
C1058       C  0.89733883  0.38647037  0.22659560     0.08800
C1059       C  0.91796777  0.38397294  0.19095213    -0.13300
C1060       C  0.90402150  0.35400395  0.16410825    -0.13300
C1061       C  0.86916352  0.32585753  0.17246869     0.08800
C1062       C  0.84903399  0.32800839  0.20843656    -0.13300
H1063       H  0.84587816  0.36008469  0.26224383     0.12800
H1064       H  0.94425867  0.40580464  0.18370908     0.12800
H1065       H  0.92016557  0.35328904  0.13661164     0.12800
H1066       H  0.82181105  0.30716950  0.21563516     0.12800
C1067       C  0.86318705  0.35746740  0.40955027    -0.13300
C1068       C  0.89947494  0.38384701  0.41800844     0.08800
C1069       C  0.92167440  0.37919140  0.45290151    -0.13300
C1070       C  0.90664547  0.34972004  0.47956122    -0.13300
C1071       C  0.86949026  0.32402098  0.47154254     0.08800
C1072       C  0.84863663  0.32754329  0.43585930    -0.13300
H1073       H  0.84541098  0.36082723  0.38285480     0.12800
H1074       H  0.94988731  0.39910138  0.45979689     0.12800
H1075       H  0.92354344  0.34763887  0.50675822     0.12800
H1076       H  0.81978224  0.30852902  0.42890811     0.12800
C1077       C  0.93069691  0.61106265  0.19389465    -0.13300
C1078       C  0.91270614  0.60935693  0.23061997     0.08800
C1079       C  0.87919123  0.63860006  0.24096648    -0.13300
C1080       C  0.86204960  0.66734429  0.21440395    -0.13300
C1081       C  0.87772272  0.66704981  0.17678159     0.08800
C1082       C  0.91322370  0.63951816  0.16714320    -0.13300
H1083       H  0.95665473  0.58886729  0.18542785     0.12800
H1084       H  0.86467531  0.63768918  0.26911409     0.12800
H1085       H  0.83490209  0.68820347  0.22283113     0.12800
H1086       H  0.92650243  0.63894076  0.13854745     0.12800
C1087       C  0.64818106  0.10664461  0.40766309    -0.13300
C1088       C  0.62009192  0.07297026  0.41761425     0.08800
C1089       C  0.62062309  0.05819870  0.45523235    -0.13300
C1090       C  0.64707903  0.07799633  0.48276838    -0.13300
C1091       C  0.67372602  0.11295137  0.47320496     0.08800
C1092       C  0.67492228  0.12623626  0.43509510    -0.13300
H1093       H  0.64803480  0.11906295  0.37898977     0.12800
H1094       H  0.59935519  0.03221943  0.46355638     0.12800
H1095       H  0.64578331  0.06655070  0.51173845     0.12800
H1096       H  0.69518125  0.15290784  0.42668035     0.12800
C1097       C  0.35522100  0.14027468  0.24429324    -0.13300
C1098       C  0.38344148  0.10551465  0.23688218     0.08800
C1099       C  0.37920369  0.08309809  0.20249052    -0.13300
C1100       C  0.34855234  0.09654944  0.17503959    -0.13300
C1101       C  0.32130932  0.13232149  0.18180063     0.08800
C1102       C  0.32424042  0.15348654  0.21703730    -0.13300
H1103       H  0.35808239  0.15782849  0.27075131     0.12800
H1104       H  0.40044673  0.05584328  0.19660822     0.12800
H1105       H  0.34674078  0.07946127  0.14827677     0.12800
H1106       H  0.30388105  0.18131307  0.22296163     0.12800
C1107       C  0.35472078  0.04841477  0.45587038    -0.13300
C1108       C  0.32081434  0.02043801  0.44414528     0.08800
C1109       C  0.27752725  0.03739189  0.43910706    -0.13300
C1110       C  0.26699561  0.07830116  0.45210756    -0.13300
C1111       C  0.29932531  0.10272814  0.47068357     0.08800
C1112       C  0.34387932  0.08881400  0.47008581    -0.13300
H1113       H  0.38886324  0.03746525  0.45823494     0.12800
H1114       H  0.25023887  0.01764493  0.42977467     0.12800
H1115       H  0.23239887  0.08846180  0.45208439     0.12800
H1116       H  0.36962845  0.10759552  0.48357262     0.12800
C1117       C  0.64532686  0.11627408  0.23596089    -0.13300
C1118       C  0.61512722  0.08396227  0.22676454     0.08800
C1119       C  0.61510620  0.06700650  0.18975351    -0.13300
C1120       C  0.64373339  0.08331602  0.16205136    -0.13300
C1121       C  0.67293014  0.11684010  0.17091976     0.08800
C1122       C  0.67403005  0.13237193  0.20848532    -0.13300
H1123       H  0.64549347  0.13017351  0.26420575     0.12800
H1124       H  0.59182392  0.04227539  0.18202394     0.12800
H1125       H  0.64214463  0.07045740  0.13346894     0.12800
H1126       H  0.69582960  0.15823378  0.21639776     0.12800
C1127       C  0.63879500  0.40500986  0.92458775    -0.13300
C1128       C  0.61571820  0.39231032  0.89186065     0.08800
C1129       C  0.62443820  0.35170370  0.87630465    -0.13300
C1130       C  0.65382839  0.32337843  0.89488922    -0.13300
C1131       C  0.67445624  0.33549517  0.92920043     0.08800
C1132       C  0.66781673  0.37713935  0.94287113    -0.13300
H1133       H  0.63241603  0.43591281  0.93729094     0.12800
H1134       H  0.60676108  0.34125912  0.85109452     0.12800
H1135       H  0.65817374  0.29141789  0.88386799     0.12800
H1136       H  0.68350688  0.38759099  0.96905302     0.12800
C1137       C  0.36583372  0.63511884  0.89281287    -0.13300
C1138       C  0.37276493  0.59355656  0.90584160     0.08800
C1139       C  0.34795470  0.57904208  0.93699620    -0.13300
C1140       C  0.31872532  0.60644301  0.95630571    -0.13300
C1141       C  0.31399779  0.64898531  0.94492494     0.08800
C1142       C  0.33691896  0.66262226  0.91225017    -0.13300
H1143       H  0.38437620  0.64678401  0.86867606     0.12800
H1144       H  0.35284541  0.54700252  0.94748082     0.12800
H1145       H  0.30153407  0.59488428  0.98118412     0.12800
H1146       H  0.33362414  0.69504693  0.90232948     0.12800
C1147       C  0.62888940  0.58822081  0.93359645    -0.13300
C1148       C  0.60657973  0.60081747  0.90046574     0.08800
C1149       C  0.61479122  0.64128854  0.88522529    -0.13300
C1150       C  0.64368609  0.66943275  0.90414402    -0.13300
C1151       C  0.66386378  0.65738633  0.93868125     0.08800
C1152       C  0.65714986  0.61607935  0.95242456    -0.13300
H1153       H  0.62285804  0.55724156  0.94583104     0.12800
H1154       H  0.59774831  0.65148358  0.85963257     0.12800
H1155       H  0.64827353  0.70114013  0.89302467     0.12800
H1156       H  0.67260387  0.60575327  0.97873790     0.12800
C1157       C  0.36282596  0.40246488  0.93238370    -0.13300
C1158       C  0.38207523  0.38848399  0.89831034     0.08800
C1159       C  0.37039937  0.34860733  0.88324850    -0.13300
C1160       C  0.34089957  0.32237995  0.90320321    -0.13300
C1161       C  0.32354984  0.33587121  0.93842606     0.08800
C1162       C  0.33383400  0.37663425  0.95207168    -0.13300
H1163       H  0.37142148  0.43312892  0.94440017     0.12800
H1164       H  0.38501932  0.33749270  0.85686035     0.12800
H1165       H  0.33339234  0.29105349  0.89213919     0.12800
H1166       H  0.32048982  0.38816900  0.97881966     0.12800
C1167       C  0.58507304  0.62744658  0.72431682    -0.13300
C1168       C  0.60106189  0.61021190  0.75842618     0.08800
C1169       C  0.64271438  0.62317975  0.77255293    -0.13300
C1170       C  0.66885395  0.65165515  0.75160342    -0.13300
C1171       C  0.65380347  0.66663665  0.71609145     0.08800
C1172       C  0.61111230  0.65519278  0.70337591    -0.13300
H1173       H  0.55309979  0.61774387  0.71295001     0.12800
H1174       H  0.65552637  0.61008434  0.79888170     0.12800
H1175       H  0.70165076  0.65998782  0.76202450     0.12800
H1176       H  0.59840678  0.66658184  0.67637002     0.12800
C1177       C  0.58810128  0.36968730  0.72192404    -0.13300
C1178       C  0.60393683  0.38724862  0.75592817     0.08800
C1179       C  0.64501280  0.37326218  0.77083960    -0.13300
C1180       C  0.67070718  0.34302465  0.75079911    -0.13300
C1181       C  0.65553351  0.32712158  0.71561130     0.08800
C1182       C  0.61342150  0.33999450  0.70211080    -0.13300
H1183       H  0.55643845  0.38001826  0.71008918     0.12800
H1184       H  0.65748764  0.38647156  0.79726234     0.12800
H1185       H  0.70303685  0.33363557  0.76182112     0.12800
H1186       H  0.60043556  0.32802210  0.67538476     0.12800
C1187       C  0.35025621  0.37385232  0.76922238    -0.13300
C1188       C  0.39136024  0.38835815  0.75566609     0.08800
C1189       C  0.40786561  0.37270538  0.72107986    -0.13300
C1190       C  0.38310640  0.34440162  0.69941981    -0.13300
C1191       C  0.34116420  0.33091764  0.71182262     0.08800
C1192       C  0.32529440  0.34497774  0.74743241    -0.13300
H1193       H  0.33719310  0.38566153  0.79597106     0.12800
H1194       H  0.43956181  0.38353822  0.71024696     0.12800
H1195       H  0.39643237  0.33381652  0.67235862     0.12800
H1196       H  0.29297123  0.33511241  0.75757799     0.12800
C1197       C  0.34543797  0.62136372  0.77677948    -0.13300
C1198       C  0.38855540  0.61016118  0.76439800     0.08800
C1199       C  0.40537116  0.62887468  0.73141353    -0.13300
C1200       C  0.37925363  0.65660640  0.71008841    -0.13300
C1201       C  0.33541734  0.66650714  0.72104662     0.08800
C1202       C  0.31898251  0.64962295  0.75522562    -0.13300
H1203       H  0.33179319  0.60695156  0.80207029     0.12800
H1204       H  0.43830249  0.62043178  0.72113853     0.12800
H1205       H  0.39302269  0.66933509  0.68411178     0.12800
H1206       H  0.28518327  0.65653073  0.76416017     0.12800
loop_ 
_geom_bond_atom_site_label_1 
_geom_bond_atom_site_label_2 
_geom_bond_distance 
_geom_bond_site_symmetry_2 
_ccdc_geom_bond_type 
N1            C6   1.351       .  A
N1            C5   1.350       .  A
N1           H33   1.037       .  S
N2            C9   1.353       .  A
N2           C10   1.353       .  A
N3            C8   1.352       .  A
N3            C7   1.352       .  A
N3           H34   1.037       .  S
N4           C11   1.353       .  A
N4           C12   1.352       .  A
C5           C13   1.386       .  A
C5           C21   1.408       .  A
C6           C22   1.411       .  A
C6           C14   1.387       .  A
C7           C15   1.387       .  A
C7           C24   1.415       .  A
C8           C23   1.414       .  A
C8           C16   1.386       .  A
C9           C21   1.413       .  A
C9           C17   1.385       .  A
C10          C24   1.416       .  A
C10          C18   1.387       .  A
C11          C19   1.386       .  A
C11          C22   1.414       .  A
C12          C20   1.387       .  A
C12          C23   1.416       .  A
C13          C14   1.375       .  A
C13          H25   1.082       .  S
C14          H26   1.082       .  S
C15          C16   1.378       .  A
C15          H27   1.082       .  S
C16          H28   1.082       .  S
C17          C18   1.372       .  A
C17          H29   1.082       .  S
C18          H30   1.081       .  S
C19          C20   1.374       .  A
C19          H31   1.082       .  S
C20          H32   1.082       .  S
C21        C1188   1.482       .  S
C22        C1178   1.482       .  S
C23        C1168   1.486       .  S
C24        C1198   1.489       .  S
N35          C40   1.356       .  A
N35          C39   1.354       .  A
N35          H67   1.041       .  S
N36          C43   1.352       .  A
N36          C44   1.353       .  A
N37          C42   1.354       .  A
N37          C41   1.355       .  A
N37          H68   1.041       .  S
N38          C45   1.349       .  A
N38          C46   1.348       .  A
C39          C47   1.387       .  A
C39          C55   1.417       .  A
C40          C56   1.418       .  A
C40          C48   1.387       .  A
C41          C49   1.388       .  A
C41          C58   1.418       .  A
C42          C57   1.415       .  A
C42          C50   1.386       .  A
C43          C55   1.413       .  A
C43          C51   1.386       .  A
C44          C58   1.415       .  A
C44          C52   1.386       .  A
C45          C53   1.385       .  A
C45          C56   1.407       .  A
C46          C54   1.387       .  A
C46          C57   1.408       .  A
C47          C48   1.374       .  A
C47          H59   1.082       .  S
C48          H60   1.082       .  S
C49          C50   1.374       .  A
C49          H61   1.081       .  S
C50          H62   1.082       .  S
C51          C52   1.373       .  A
C51          H63   1.082       .  S
C52          H64   1.082       .  S
C53          C54   1.372       .  A
C53          H65   1.082       .  S
C54          H66   1.083       .  S
C55        C1148   1.487       .  S
C56        C1138   1.490       .  S
C57        C1158   1.483       .  S
C58        C1128   1.492       .  S
N69          C74   1.344       .  A
N69          C73   1.346       .  A
N69         H101   1.044       .  S
N70          C77   1.351       .  A
N70          C78   1.346       .  A
N71          C76   1.359       .  A
N71          C75   1.360       .  A
N71         H102   1.041       .  S
N72          C79   1.351       .  A
N72          C80   1.343       .  A
C73          C81   1.388       .  A
C73          C89   1.405       .  A
C74          C90   1.399       .  A
C74          C82   1.383       .  A
C75          C83   1.388       .  A
C75          C92   1.425       .  A
C76          C91   1.422       .  A
C76          C84   1.386       .  A
C77          C89   1.407       .  A
C77          C85   1.381       .  A
C78          C92   1.415       .  A
C78          C86   1.390       .  A
C79          C87   1.384       .  A
C79          C90   1.399       .  A
C80          C88   1.388       .  A
C80          C91   1.409       .  A
C81          C82   1.382       .  A
C81          H93   1.082       .  S
C82          H94   1.082       .  S
C83          C84   1.372       .  A
C83          H95   1.082       .  S
C84          H96   1.082       .  S
C85          C86   1.377       .  A
C85          H97   1.082       .  S
C86          H98   1.082       .  S
C87          C88   1.376       .  A
C87          H99   1.082       .  S
C88         H100   1.082       .  S
C89        C1088   1.488       .  S
C90         C159   1.512   1_545  S
C91        C1098   1.482       .  S
C92        C1118   1.492       .  S
N103        C108   1.356       .  A
N103        C107   1.355       .  A
N103        H135   1.042       .  S
N104        C111   1.349       .  A
N104        C112   1.349       .  A
N105        C110   1.356       .  A
N105        C109   1.355       .  A
N105        H136   1.042       .  S
N106        C113   1.349       .  A
N106        C114   1.348       .  A
C107        C115   1.386       .  A
C107        C123   1.415       .  A
C108        C124   1.417       .  A
C108        C116   1.387       .  A
C109        C117   1.386       .  A
C109        C126   1.416       .  A
C110        C125   1.419       .  A
C110        C118   1.388       .  A
C111        C123   1.408       .  A
C111        C119   1.386       .  A
C112        C126   1.408       .  A
C112        C120   1.386       .  A
C113        C121   1.386       .  A
C113        C124   1.408       .  A
C114        C122   1.386       .  A
C114        C125   1.409       .  A
C115        C116   1.373       .  A
C115        H127   1.082       .  S
C116        H128   1.082       .  S
C117        C118   1.376       .  A
C117        H129   1.082       .  S
C118        H130   1.082       .  S
C119        C120   1.371       .  A
C119        H131   1.082       .  S
C120        H132   1.082       .  S
C121        C122   1.374       .  A
C121        H133   1.082       .  S
C122        H134   1.082       .  S
C123       C1058   1.488       .  S
C124       C1078   1.490       .  S
C125       C1048   1.490       .  S
C126       C1068   1.488       .  S
N137        C142   1.357       .  A
N137        C141   1.352       .  A
N137        H169   1.034       .  S
N138        C145   1.354       .  A
N138        C146   1.356       .  A
N139        C144   1.350       .  A
N139        C143   1.348       .  A
N139        H170   1.039       .  S
N140        C147   1.347       .  A
N140        C148   1.347       .  A
C141        C149   1.391       .  A
C141        C157   1.423       .  A
C142        C158   1.419       .  A
C142        C150   1.384       .  A
C143        C151   1.390       .  A
C143        C160   1.417       .  A
C144        C159   1.406       .  A
C144        C152   1.383       .  A
C145        C157   1.421       .  A
C145        C153   1.387       .  A
C146        C160   1.422       .  A
C146        C154   1.386       .  A
C147        C155   1.387       .  A
C147        C158   1.405       .  A
C148        C156   1.381       .  A
C148        C159   1.401       .  A
C149        C150   1.375       .  A
C149        H161   1.081       .  S
C150        H162   1.082       .  S
C151        C152   1.381       .  A
C151        H163   1.081       .  S
C152        H164   1.081       .  S
C153        C154   1.366       .  A
C153        H165   1.082       .  S
C154        H166   1.082       .  S
C155        C156   1.379       .  A
C155        H167   1.082       .  S
C156        H168   1.082       .  S
C157       C1018   1.488       .  S
C158       C1038   1.490       .  S
C160       C1028   1.483       .  S
N171        C176   1.354       .  A
N171        C175   1.358       .  A
N171        H203   1.040       .  S
N172        C179   1.347       .  A
N172        C180   1.348       .  A
N173        C178   1.355       .  A
N173        C177   1.356       .  A
N173        H204   1.041       .  S
N174        C181   1.355       .  A
N174        C182   1.355       .  A
C175        C183   1.386       .  A
C175        C191   1.419       .  A
C176        C192   1.420       .  A
C176        C184   1.388       .  A
C177        C185   1.387       .  A
C177        C194   1.418       .  A
C178        C193   1.417       .  A
C178        C186   1.388       .  A
C179        C191   1.406       .  A
C179        C187   1.386       .  A
C180        C194   1.406       .  A
C180        C188   1.386       .  A
C181        C189   1.386       .  A
C181        C192   1.420       .  A
C182        C190   1.386       .  A
C182        C193   1.418       .  A
C183        C184   1.373       .  A
C183        H195   1.082       .  S
C184        H196   1.082       .  S
C185        C186   1.367       .  A
C185        H197   1.081       .  S
C186        H198   1.081       .  S
C187        C188   1.369       .  A
C187        H199   1.082       .  S
C188        H200   1.082       .  S
C189        C190   1.376       .  A
C189        H201   1.082       .  S
C190        H202   1.082       .  S
C191        C968   1.489       .  S
C192        C988   1.498       .  S
C193        C981   1.493       .  S
C194        C998   1.485       .  S
Zr205       O206   2.439       .  S
Zr205       O207   2.399       .  S
Zr205       O208   2.419       .  S
Zr205       O211   2.414       .  S
Zr205       O213   2.376       .  S
Zr205       O214   2.381       .  S
Zr205       O215   2.390       .  S
Zr205       O216   2.388       .  S
O206        H262   0.990       .  S
O206        H270   0.990       .  S
O207        C227   1.276       .  A
O208        C229   1.282       .  A
O209       Zr219   2.429       .  S
O209        C228   1.285       .  A
O210       Zr218   2.428       .  S
O210        C229   1.284       .  A
O211        C228   1.283       .  A
O212       Zr220   2.433       .  S
O212        C227   1.283       .  A
O213       Zr218   2.382       .  S
O213       Zr220   2.371       .  S
O214       Zr219   2.382       .  S
O214       Zr220   2.375       .  S
O214        H249   0.966       .  S
O215       Zr218   2.394       .  S
O215       Zr235   2.389       .  S
O215        H252   0.966       .  S
O216       Zr219   2.391       .  S
O216       Zr235   2.386       .  S
Zr217       O242   2.440       .  S
Zr217       O236   2.436       .  S
Zr217       O244   2.440       .  S
Zr217       O232   2.437       .  S
Zr217       O223   2.403   1_556  S
Zr217       O224   2.408   1_556  S
Zr217       O225   2.384   1_556  S
Zr217       O226   2.383   1_556  S
Zr218       O237   2.438       .  S
Zr218       O230   2.437       .  S
Zr218       O231   2.411   1_554  S
Zr218       O224   2.398       .  S
Zr218       O225   2.387       .  S
Zr219       O221   2.435       .  S
Zr219       O243   2.437       .  S
Zr219       O245   2.422   1_554  S
Zr219       O223   2.390       .  S
Zr219       O226   2.389       .  S
Zr220       O246   2.436       .  S
Zr220       O247   2.435   1_554  S
Zr220       O222   2.438       .  S
Zr220       O223   2.404       .  S
Zr220       O224   2.394       .  S
O221        H258   0.990       .  S
O222        H253   0.990       .  S
O222        H267   0.990       .  S
O224        H250   0.967   1_554  S
O225       Zr235   2.373       .  S
O226       Zr235   2.374       .  S
O226        H251   0.966       .  S
C227        C965   1.423       .  S
C228       C1101   1.475       .  S
C229       C1001   1.476       .  S
O230        H266   0.990       .  S
O231        C233   1.279       .  A
O232        C233   1.284       .  A
C233        C961   1.428       .  S
O234       Zr235   2.441       .  S
O234        H263   0.991       .  S
Zr235       O238   2.439       .  S
Zr235       O239   2.440       .  S
Zr235       O240   2.407   1_554  S
O236        C241   1.284       .  A
O237        H254   0.990       .  S
O237        H269   0.990       .  S
O238        H255   0.990       .  S
O239        H259   0.990       .  S
O239        H268   0.990       .  S
O240        C241   1.281       .  A
C241       C1161   1.474       .  S
O242        H261   0.990       .  S
O242        H265   0.990       .  S
O243        H257   0.990       .  S
O243        H264   0.990       .  S
O244        C248   1.285       .  A
O245        C248   1.281       .  A
O246        H256   0.990       .  S
O247        H260   0.990       .  S
C248        C964   1.435       .  S
Zr271       O272   2.438       .  S
Zr271       O273   2.433   1_554  S
Zr271       O274   2.479       .  S
Zr271       O277   2.458   1_554  S
Zr271       O279   2.385       .  S
Zr271       O280   2.390   1_554  S
Zr271       O281   2.402       .  S
Zr271       O282   2.402       .  S
O272        H328   0.990       .  S
O272        H336   0.991       .  S
O273        C293   1.283       .  A
O274        C295   1.292       .  A
O275       Zr285   2.406       .  S
O275        C294   1.280       .  A
O276       Zr284   2.395       .  S
O276        C295   1.277       .  A
O277        C294   1.290       .  A
O278       Zr286   2.443   1_556  S
O278        C293   1.285       .  A
O279       Zr284   2.386       .  S
O279       Zr286   2.377       .  S
O280       Zr285   2.382       .  S
O280       Zr286   2.376   1_556  S
O280        H315   0.961       .  S
O281       Zr284   2.391       .  S
O281       Zr301   2.386       .  S
O281        H318   0.967       .  S
O282       Zr285   2.386   1_554  S
O282       Zr301   2.386       .  S
Zr283       O308   2.441       .  S
Zr283       O302   2.460       .  S
Zr283       O310   2.479       .  S
Zr283       O298   2.471       .  S
Zr283       O289   2.415       .  S
Zr283       O290   2.419       .  S
Zr283       O291   2.379       .  S
Zr283       O292   2.386       .  S
Zr284       O303   2.437       .  S
Zr284       O296   2.437       .  S
Zr284       O297   2.395       .  S
Zr284       O290   2.391       .  S
Zr284       O291   2.384       .  S
Zr285       O287   2.436       .  S
Zr285       O309   2.438       .  S
Zr285       O311   2.397       .  S
Zr285       O289   2.391   1_556  S
Zr285       O292   2.386   1_556  S
Zr286       O312   2.435   1_554  S
Zr286       O313   2.436   1_554  S
Zr286       O288   2.442       .  S
Zr286       O289   2.407       .  S
Zr286       O290   2.406       .  S
O287        H324   0.990       .  S
O288        H319   0.990   1_554  S
O288        H333   0.990       .  S
O290        H316   0.963       .  S
O291       Zr301   2.372       .  S
O292       Zr301   2.374       .  S
O292        H317   0.945       .  S
C293        C956   1.441       .  S
C294       C1141   1.485       .  S
C295        C978   1.476       .  S
O296        H332   0.990       .  S
O297        C299   1.276       .  A
O298        C299   1.291       .  A
C299        C960   1.437       .  S
O300       Zr301   2.437       .  S
O300        H329   0.990       .  S
Zr301       O304   2.438       .  S
Zr301       O305   2.438       .  S
Zr301       O306   2.408       .  S
O302        C307   1.289       .  A
O303        H320   0.990       .  S
O303        H335   0.990       .  S
O304        H321   0.990       .  S
O305        H325   0.989       .  S
O305        H334   0.990       .  S
O306        C307   1.281       .  A
C307       C1041   1.485       .  S
O308        H327   0.990       .  S
O308        H331   0.990       .  S
O309        H323   0.990       .  S
O309        H330   0.990       .  S
O310        C314   1.292   1_554  A
O311        C314   1.277       .  A
O312        H322   0.990       .  S
O313        H326   0.990       .  S
C314        C957   1.441       .  S
Zr337       O338   2.439       .  S
Zr337       O339   2.411       .  S
Zr337       O340   2.438       .  S
Zr337       O343   2.436       .  S
Zr337       O345   2.386       .  S
Zr337       O346   2.383       .  S
Zr337       O347   2.400       .  S
Zr337       O348   2.403       .  S
O338        H394   0.990       .  S
O338        H402   0.990       .  S
O339        C359   1.279       .  A
O340        C361   1.287       .  A
O341       Zr351   2.436       .  S
O341        C360   1.287       .  A
O342       Zr350   2.453       .  S
O342        C361   1.289       .  A
O343        C360   1.285       .  A
O344       Zr352   2.430       .  S
O344        C359   1.282       .  A
O345       Zr350   2.388       .  S
O345       Zr352   2.376       .  S
O346       Zr351   2.380       .  S
O346       Zr352   2.365       .  S
O346        H381   0.966       .  S
O347       Zr350   2.393       .  S
O347       Zr367   2.387       .  S
O347        H384   0.966       .  S
O348       Zr351   2.389       .  S
O348       Zr367   2.399       .  S
Zr349       O374   2.444       .  S
Zr349       O368   2.448       .  S
Zr349       O376   2.459       .  S
Zr349       O364   2.442       .  S
Zr349       O355   2.404       .  S
Zr349       O356   2.411       .  S
Zr349       O357   2.387       .  S
Zr349       O358   2.386       .  S
Zr350       O369   2.435       .  S
Zr350       O362   2.436       .  S
Zr350       O363   2.436       .  S
Zr350       O356   2.397       .  S
Zr350       O357   2.392       .  S
Zr351       O353   2.433       .  S
Zr351       O375   2.438       .  S
Zr351       O377   2.428       .  S
Zr351       O355   2.394       .  S
Zr351       O358   2.382       .  S
Zr352       O378   2.435       .  S
Zr352       O379   2.434       .  S
Zr352       O354   2.435       .  S
Zr352       O355   2.396       .  S
Zr352       O356   2.388       .  S
O353        H390   0.990       .  S
O354        H385   0.990       .  S
O354        H399   0.990       .  S
O356        H382   0.966       .  S
O357       Zr367   2.370       .  S
O358       Zr367   2.377       .  S
O358        H383   0.966       .  S
C359        C952   1.426       .  S
C360       C1011   1.485       .  S
C361        C991   1.491       .  S
O362        H398   0.990       .  S
O363        C365   1.285       .  A
O364        C365   1.286       .  A
C365        C949   1.441       .  S
O366       Zr367   2.438       .  S
O366        H395   0.990       .  S
Zr367       O370   2.437       .  S
Zr367       O371   2.436       .  S
Zr367       O372   2.417       .  S
O368        C373   1.287       .  A
O369        H386   0.990       .  S
O369        H401   0.990       .  S
O370        H387   0.990       .  S
O371        H391   0.990       .  S
O371        H400   0.990       .  S
O372        C373   1.283       .  A
C373       C1201   1.481       .  S
O374        H393   0.990       .  S
O374        H397   0.990       .  S
O375        H389   0.990       .  S
O375        H396   0.990       .  S
O376        C380   1.288       .  A
O377        C380   1.283       .  A
O378        H388   0.990       .  S
O379        H392   0.990       .  S
C380        C954   1.447       .  S
Zr403       O404   2.440       .  S
Zr403       O405   2.430       .  S
Zr403       O406   2.449       .  S
Zr403       O409   2.436       .  S
Zr403       O411   2.387       .  S
Zr403       O412   2.388       .  S
Zr403       O413   2.402       .  S
Zr403       O414   2.401       .  S
O404        H460   0.990       .  S
O404        H468   0.990       .  S
O405        C425   1.283       .  A
O406        C427   1.286       .  A
O407       Zr417   2.415       .  S
O407        C426   1.280       .  A
O408       Zr416   2.423       .  S
O408        C427   1.281       .  A
O409        C426   1.284       .  A
O410       Zr418   2.422       .  S
O410        C425   1.284       .  A
O411       Zr416   2.388       .  S
O411       Zr418   2.374       .  S
O412       Zr417   2.383       .  S
O412       Zr418   2.373       .  S
O412        H447   0.966       .  S
O413       Zr416   2.400       .  S
O413       Zr433   2.395       .  S
O413        H450   0.966       .  S
O414       Zr417   2.386       .  S
O414       Zr433   2.393       .  S
Zr415       O440   2.441       .  S
Zr415       O434   2.426       .  S
Zr415       O442   2.444       .  S
Zr415       O430   2.444       .  S
Zr415       O421   2.400       .  S
Zr415       O422   2.405       .  S
Zr415       O423   2.377       .  S
Zr415       O424   2.383       .  S
Zr416       O435   2.438       .  S
Zr416       O428   2.436       .  S
Zr416       O429   2.426       .  S
Zr416       O422   2.391       .  S
Zr416       O423   2.385       .  S
Zr417       O419   2.434       .  S
Zr417       O441   2.439       .  S
Zr417       O443   2.412       .  S
Zr417       O421   2.389       .  S
Zr417       O424   2.382       .  S
Zr418       O444   2.436       .  S
Zr418       O445   2.437       .  S
Zr418       O420   2.437       .  S
Zr418       O421   2.391       .  S
Zr418       O422   2.396       .  S
O419        H456   0.990       .  S
O420        H451   0.990       .  S
O420        H465   0.990       .  S
O422        H448   0.966       .  S
O423       Zr433   2.371       .  S
O424       Zr433   2.377       .  S
O424        H449   0.966       .  S
C425       C1191   1.477       .  S
C426        C947   1.431       .  S
C427        C945   1.438       .  S
O428        H464   0.990       .  S
O429        C431   1.284       .  A
O430        C431   1.287       .  A
C431       C1111   1.475       .  S
O432       Zr433   2.438       .  S
O432        H461   0.990       .  S
Zr433       O436   2.435       .  S
Zr433       O437   2.438       .  S
Zr433       O438   2.428       .  S
O434        C439   1.282       .  A
O435        H452   0.990       .  S
O435        H467   0.990       .  S
O436        H453   0.990       .  S
O437        H457   0.990       .  S
O437        H466   0.990       .  S
O438        C439   1.282       .  A
C439        C944   1.433       .  S
O440        H459   0.990       .  S
O440        H463   0.990       .  S
O441        H455   0.990       .  S
O441        H462   0.990       .  S
O442        C446   1.288       .  A
O443        C446   1.282       .  A
O444        H454   0.990       .  S
O445        H458   0.990       .  S
C446        C971   1.481       .  S
Zr469       O470   2.441       .  S
Zr469       O471   2.413       .  S
Zr469       O472   2.440       .  S
Zr469       O475   2.436       .  S
Zr469       O477   2.380       .  S
Zr469       O478   2.383       .  S
Zr469       O479   2.398       .  S
Zr469       O480   2.395       .  S
O470        H526   0.991       .  S
O470        H534   0.990       .  S
O471        C491   1.279       .  A
O472        C493   1.286       .  A
O473       Zr483   2.421       .  S
O473        C492   1.282       .  A
O474       Zr482   2.425       .  S
O474        C493   1.284       .  A
O475        C492   1.286       .  A
O476       Zr484   2.430       .  S
O476        C491   1.281       .  A
O477       Zr482   2.387       .  S
O477       Zr484   2.371       .  S
O478       Zr483   2.385       .  S
O478       Zr484   2.372       .  S
O478        H513   0.966       .  S
O479       Zr482   2.396       .  S
O479       Zr499   2.391       .  S
O479        H516   0.966       .  S
O480       Zr483   2.393       .  S
O480       Zr499   2.386       .  S
Zr481       O506   2.444       .  S
Zr481       O500   2.451       .  S
Zr481       O508   2.447       .  S
Zr481       O496   2.436       .  S
Zr481       O487   2.411   1_556  S
Zr481       O488   2.415   1_556  S
Zr481       O489   2.384   1_556  S
Zr481       O490   2.382   1_556  S
Zr482       O501   2.438       .  S
Zr482       O494   2.436       .  S
Zr482       O495   2.426   1_554  S
Zr482       O488   2.395       .  S
Zr482       O489   2.382       .  S
Zr483       O485   2.435       .  S
Zr483       O507   2.436       .  S
Zr483       O509   2.419   1_554  S
Zr483       O487   2.389       .  S
Zr483       O490   2.389       .  S
Zr484       O510   2.437       .  S
Zr484       O511   2.433   1_554  S
Zr484       O486   2.438       .  S
Zr484       O487   2.406       .  S
Zr484       O488   2.395       .  S
O485        H522   0.990       .  S
O486        H517   0.990       .  S
O486        H531   0.990       .  S
O488        H514   0.966   1_554  S
O489       Zr499   2.376       .  S
O490       Zr499   2.374       .  S
O490        H515   0.966       .  S
C491        C941   1.427       .  S
C492       C1021   1.470       .  S
C493       C1081   1.483       .  S
O494        H530   0.990       .  S
O495        C497   1.282       .  A
O496        C497   1.284       .  A
C497        C938   1.432       .  S
O498       Zr499   2.438       .  S
O498        H527   0.990       .  S
Zr499       O502   2.437       .  S
Zr499       O503   2.441       .  S
Zr499       O504   2.412   1_554  S
O500        C505   1.287       .  A
O501        H518   0.990       .  S
O501        H533   0.990       .  S
O502        H519   0.990       .  S
O503        H523   0.990       .  S
O503        H532   0.990       .  S
O504        C505   1.282       .  A
C505       C1151   1.479       .  S
O506        H525   0.990       .  S
O506        H529   0.990       .  S
O507        H521   0.990       .  S
O507        H528   0.990       .  S
O508        C512   1.286       .  A
O509        C512   1.281       .  A
O510        H520   0.990       .  S
O511        H524   0.990       .  S
C512        C939   1.436       .  S
Zr535       O536   2.437       .  S
Zr535       O537   2.444       .  S
Zr535       O538   2.447       .  S
Zr535       O541   2.429       .  S
Zr535       O543   2.378       .  S
Zr535       O544   2.386       .  S
Zr535       O545   2.407       .  S
Zr535       O546   2.413       .  S
O536        H592   0.990       .  S
O536        H600   0.990       .  S
O537        C557   1.285       .  A
O538        C559   1.285       .  A
O539       Zr549   2.416       .  S
O539        C558   1.281       .  A
O540       Zr548   2.429       .  S
O540        C559   1.283       .  A
O541        C558   1.283       .  A
O542       Zr550   2.421       .  S
O542        C557   1.283       .  A
O543       Zr548   2.387       .  S
O543       Zr550   2.377       .  S
O544       Zr549   2.391       .  S
O544       Zr550   2.365       .  S
O544        H579   0.966       .  S
O545       Zr548   2.388       .  S
O545       Zr565   2.404       .  S
O545        H582   0.966       .  S
O546       Zr549   2.392       .  S
O546       Zr565   2.406       .  S
Zr547       O572   2.446       .  S
Zr547       O566   2.430       .  S
Zr547       O574   2.444       .  S
Zr547       O562   2.441       .  S
Zr547       O553   2.402       .  S
Zr547       O554   2.403       .  S
Zr547       O555   2.383       .  S
Zr547       O556   2.382       .  S
Zr548       O567   2.434       .  S
Zr548       O560   2.435       .  S
Zr548       O561   2.418       .  S
Zr548       O554   2.396       .  S
Zr548       O555   2.390       .  S
Zr549       O551   2.435       .  S
Zr549       O573   2.437       .  S
Zr549       O575   2.428       .  S
Zr549       O553   2.392       .  S
Zr549       O556   2.383       .  S
Zr550       O576   2.438       .  S
Zr550       O577   2.436       .  S
Zr550       O552   2.437       .  S
Zr550       O553   2.397       .  S
Zr550       O554   2.389       .  S
O551        H588   0.990       .  S
O552        H583   0.990       .  S
O552        H597   0.990       .  S
O554        H580   0.966       .  S
O555       Zr565   2.374       .  S
O556       Zr565   2.375       .  S
O556        H581   0.966       .  S
C557       C1171   1.482       .  S
C558        C933   1.427       .  S
C559        C932   1.441       .  S
O560        H596   0.990       .  S
O561        C563   1.282       .  A
O562        C563   1.287       .  A
C563       C1031   1.470       .  S
O564       Zr565   2.440       .  S
O564        H593   0.990       .  S
Zr565       O568   2.440       .  S
Zr565       O569   2.441       .  S
Zr565       O570   2.445       .  S
O566        C571   1.283       .  A
O567        H584   0.990       .  S
O567        H599   0.990       .  S
O568        H585   0.990       .  S
O569        H589   0.990       .  S
O569        H598   0.990       .  S
O570        C571   1.285       .  A
C571        C935   1.442       .  S
O572        H591   0.989       .  S
O572        H595   0.991       .  S
O573        H587   0.990       .  S
O573        H594   0.990       .  S
O574        C578   1.287       .  A
O575        C578   1.284       .  A
O576        H586   0.990       .  S
O577        H590   0.990       .  S
C578       C1051   1.487       .  S
Zr601       O602   2.441       .  S
Zr601       O603   2.408       .  S
Zr601       O604   2.438       .  S
Zr601       O607   2.438       .  S
Zr601       O609   2.383       .  S
Zr601       O610   2.384       .  S
Zr601       O611   2.398       .  S
Zr601       O612   2.389       .  S
O602        H658   0.990       .  S
O602        H666   0.990       .  S
O603        C623   1.278       .  A
O604        C625   1.286       .  A
O605       Zr615   2.413       .  S
O605        C624   1.282       .  A
O606       Zr614   2.435       .  S
O606        C625   1.285       .  A
O607        C624   1.287       .  A
O608       Zr616   2.441       .  S
O608        C623   1.284       .  A
O609       Zr614   2.388       .  S
O609       Zr616   2.374       .  S
O610       Zr615   2.385       .  S
O610       Zr616   2.372       .  S
O610        H645   0.965       .  S
O611       Zr614   2.397       .  S
O611       Zr631   2.385       .  S
O611        H648   0.965       .  S
O612       Zr615   2.394       .  S
O612       Zr631   2.385       .  S
Zr613       O638   2.441       .  S
Zr613       O632   2.468       .  S
Zr613       O640   2.443       .  S
Zr613       O628   2.433       .  S
Zr613       O619   2.411   1_556  S
Zr613       O620   2.417   1_556  S
Zr613       O621   2.383   1_556  S
Zr613       O622   2.376   1_556  S
Zr614       O633   2.435       .  S
Zr614       O626   2.436       .  S
Zr614       O627   2.425   1_554  S
Zr614       O620   2.396       .  S
Zr614       O621   2.389       .  S
Zr615       O617   2.435       .  S
Zr615       O639   2.440       .  S
Zr615       O641   2.420   1_554  S
Zr615       O619   2.388       .  S
Zr615       O622   2.380       .  S
Zr616       O642   2.434       .  S
Zr616       O643   2.436   1_554  S
Zr616       O618   2.437       .  S
Zr616       O619   2.407       .  S
Zr616       O620   2.402       .  S
O617        H654   0.990       .  S
O618        H649   0.990       .  S
O618        H663   0.990       .  S
O620        H646   0.965   1_554  S
O621       Zr631   2.375       .  S
O622       Zr631   2.372       .  S
O622        H647   0.965   1_554  S
C623        C930   1.431       .  S
C624       C1061   1.480       .  S
C625       C1121   1.488       .  S
O626        H662   0.990       .  S
O627        C629   1.282       .  A
O628        C629   1.284       .  A
C629        C925   1.431       .  S
O630       Zr631   2.439       .  S
O630        H659   0.990       .  S
Zr631       O634   2.437       .  S
Zr631       O635   2.439       .  S
Zr631       O636   2.400   1_554  S
O632        C637   1.290       .  A
O633        H650   0.990       .  S
O633        H665   0.990       .  S
O634        H651   0.990       .  S
O635        H655   0.990       .  S
O635        H664   0.990       .  S
O636        C637   1.280       .  A
C637       C1131   1.482       .  S
O638        H657   0.990       .  S
O638        H661   0.990       .  S
O639        H653   0.990       .  S
O639        H660   0.990       .  S
O640        C644   1.285       .  A
O641        C644   1.281       .  A
O642        H652   0.990       .  S
O643        H656   0.990       .  S
C644        C928   1.434       .  S
Zr667       O668   2.438       .  S
Zr667       O669   2.448       .  S
Zr667       O670   2.460       .  S
Zr667       O673   2.468       .  S
Zr667       O675   2.383       .  S
Zr667       O676   2.388       .  S
Zr667       O677   2.415       .  S
Zr667       O678   2.413       .  S
O668        H724   0.990       .  S
O668        H732   0.990       .  S
O669        C689   1.286       .  A
O670        C691   1.288       .  A
O671       Zr681   2.416       .  S
O671        C690   1.280       .  A
O672       Zr680   2.404       .  S
O672        C691   1.278       .  A
O673        C690   1.291       .  A
O674       Zr682   2.402       .  S
O674        C689   1.280       .  A
O675       Zr680   2.390       .  S
O675       Zr682   2.372       .  S
O676       Zr681   2.390       .  S
O676       Zr682   2.374       .  S
O676        H711   0.967       .  S
O677       Zr680   2.397       .  S
O677       Zr697   2.401       .  S
O677        H714   0.966       .  S
O678       Zr681   2.396       .  S
O678       Zr697   2.406       .  S
Zr679       O704   2.440       .  S
Zr679       O698   2.412       .  S
Zr679       O706   2.432       .  S
Zr679       O694   2.450       .  S
Zr679       O685   2.395       .  S
Zr679       O686   2.394       .  S
Zr679       O687   2.380       .  S
Zr679       O688   2.385       .  S
Zr680       O699   2.438       .  S
Zr680       O692   2.436       .  S
Zr680       O693   2.420       .  S
Zr680       O686   2.394       .  S
Zr680       O687   2.384       .  S
Zr681       O683   2.436       .  S
Zr681       O705   2.438       .  S
Zr681       O707   2.426       .  S
Zr681       O685   2.392       .  S
Zr681       O688   2.378       .  S
Zr682       O708   2.436       .  S
Zr682       O709   2.434       .  S
Zr682       O684   2.437       .  S
Zr682       O685   2.385       .  S
Zr682       O686   2.388       .  S
O683        H720   0.990       .  S
O684        H715   0.990       .  S
O684        H729   0.990       .  S
O686        H712   0.966       .  S
O687       Zr697   2.376       .  S
O688       Zr697   2.372       .  S
O688        H713   0.966       .  S
C689       C1181   1.479       .  S
C690        C920   1.446       .  S
C691        C924   1.435       .  S
O692        H728   0.990       .  S
O693        C695   1.283       .  A
O694        C695   1.288       .  A
C695       C1071   1.483       .  S
O696       Zr697   2.440       .  S
O696        H725   0.990       .  S
Zr697       O700   2.437       .  S
Zr697       O701   2.439       .  S
Zr697       O702   2.439       .  S
O698        C703   1.279       .  A
O699        H716   0.990       .  S
O699        H731   0.990       .  S
O700        H717   0.990       .  S
O701        H721   0.990       .  S
O701        H730   0.990       .  S
O702        C703   1.284       .  A
C703        C922   1.431       .  S
O704        H723   0.990       .  S
O704        H727   0.990       .  S
O705        H719   0.990       .  S
O705        H726   0.990       .  S
O706        C710   1.286       .  A
O707        C710   1.285       .  A
O708        H718   0.990       .  S
O709        H722   0.990       .  S
C710       C1091   1.483       .  S
O733       Zr745   2.455       .  S
O733        C735   1.289       .  A
O734       Zr771   2.402   1_545  S
O734        C735   1.280       .  A
C735        C929   1.432       .  S
O736       Zr748   2.437       .  S
O736        C738   1.286       .  A
O737       Zr772   2.428   1_445  S
O737        C738   1.286       .  A
C738        C943   1.433       .  S
O739       Zr748   2.443       .  S
O739        C741   1.287       .  A
O740       Zr771   2.400   1_445  S
O740        C741   1.280       .  A
C741        C966   1.424       .  S
O742       Zr745   2.451       .  S
O742        C744   1.288       .  A
O743       Zr772   2.413   1_545  S
O743        C744   1.282       .  A
C744        C921   1.431       .  S
Zr745       O746   2.431       .  S
Zr745       O747   2.433       .  S
Zr745       O751   2.369       .  S
Zr745       O752   2.373       .  S
Zr745       O775   2.372   1_545  S
Zr745       O777   2.372   1_545  S
O746        H789   0.990       .  S
O747        H788   0.990       .  S
O747        H792   0.990       .  S
Zr748       O749   2.436       .  S
Zr748       O750   2.435       .  S
Zr748       O752   2.364   1_455  S
Zr748       O751   2.367   1_455  S
Zr748       O776   2.361       .  S
Zr748       O778   2.381       .  S
O749        H790   0.990       .  S
O749        H793   0.990       .  S
O750        H783   0.990       .  S
O751       Zr771   2.376   1_545  S
O752       Zr772   2.383   1_545  S
O752        H779   0.966       .  S
O753       Zr765   2.453       .  S
O753        C755   1.288       .  A
O754       Zr772   2.429       .  S
O754        C755   1.286       .  A
C755        C936   1.442       .  S
O756       Zr768   2.461       .  S
O756        C758   1.290       .  A
O757       Zr771   2.419   1_455  S
O757        C758   1.283       .  A
C758        C959   1.441       .  S
O759       Zr768   2.436       .  S
O759        C761   1.285       .  A
O760       Zr772   2.416   1_455  S
O760        C761   1.283       .  A
C761        C951   1.426       .  S
O762       Zr765   2.438       .  S
O762        C764   1.286       .  A
O763       Zr771   2.409       .  S
O763        C764   1.282       .  A
C764        C942   1.426       .  S
Zr765       O766   2.438       .  S
Zr765       O767   2.436       .  S
Zr765       O773   2.366   1_655  S
Zr765       O774   2.383   1_655  S
Zr765       O777   2.374       .  S
Zr765       O775   2.374       .  S
O766        H786   0.990       .  S
O766        H791   0.990       .  S
O767        H787   0.990       .  S
Zr768       O769   2.433       .  S
Zr768       O770   2.434       .  S
Zr768       O774   2.372       .  S
Zr768       O773   2.381       .  S
Zr768       O778   2.381   1_565  S
Zr768       O776   2.366   1_565  S
O769        H785   0.990       .  S
O770        H784   0.990       .  S
O770        H794   0.990       .  S
Zr771       O774   2.376   1_655  S
Zr771       O776   2.376   1_665  S
Zr771       O777   2.385       .  S
Zr772       O773   2.382   1_655  S
Zr772       O775   2.380       .  S
Zr772       O778   2.385   1_665  S
O773        H781   0.965       .  S
O776        H780   0.965       .  S
O777        H782   0.966       .  S
O795       Zr807   2.444       .  S
O795        C797   1.288       .  A
O796       Zr833   2.443   1_565  S
O796        C797   1.289       .  A
C797        C958   1.444       .  S
O798       Zr810   2.432       .  S
O798        C800   1.285       .  A
O799       Zr834   2.428   1_545  S
O799        C800   1.286       .  A
C800        C926   1.431       .  S
O801       Zr810   2.438       .  S
O801        C803   1.286       .  A
O802       Zr833   2.432       .  S
O802        C803   1.287       .  A
C803        C963   1.435       .  S
O804       Zr807   2.441       .  S
O804        C806   1.286       .  A
O805       Zr834   2.430       .  S
O805        C806   1.286       .  A
C806        C940   1.436       .  S
Zr807       O808   2.439       .  S
Zr807       O809   2.435       .  S
Zr807       O813   2.365   1_565  S
Zr807       O814   2.371   1_565  S
Zr807       O837   2.369       .  S
Zr807       O839   2.376       .  S
O808        H851   0.990       .  S
O809        H850   0.990       .  S
O809        H854   0.990       .  S
Zr810       O811   2.438       .  S
Zr810       O812   2.435       .  S
Zr810       O814   2.373       .  S
Zr810       O813   2.359       .  S
Zr810       O838   2.369       .  S
Zr810       O840   2.367       .  S
O811        H852   0.990       .  S
O811        H855   0.990       .  S
O812        H845   0.990       .  S
O813       Zr833   2.382       .  S
O814       Zr834   2.390   1_545  S
O814        H841   0.965       .  S
O815       Zr827   2.441       .  S
O815        C817   1.287       .  A
O816       Zr834   2.438       .  S
O816        C817   1.288       .  A
C817        C931   1.441       .  S
O818       Zr830   2.430       .  S
O818        C820   1.284       .  A
O819       Zr833   2.444       .  S
O819        C820   1.289       .  A
C820        C946   1.437       .  S
O821       Zr830   2.452       .  S
O821        C823   1.288       .  A
O822       Zr834   2.439   1_545  S
O822        C823   1.288       .  A
C823        C919   1.447       .  S
O824       Zr827   2.431       .  S
O824        C826   1.284       .  A
O825       Zr833   2.463   1_565  S
O825        C826   1.293       .  A
C826        C953   1.447       .  S
Zr827       O828   2.435       .  S
Zr827       O829   2.437       .  S
Zr827       O835   2.381       .  S
Zr827       O836   2.375       .  S
Zr827       O839   2.381       .  S
Zr827       O837   2.367       .  S
O828        H848   0.990       .  S
O828        H853   0.990       .  S
O829        H849   0.990       .  S
Zr830       O831   2.435       .  S
Zr830       O832   2.437       .  S
Zr830       O836   2.377   1_545  S
Zr830       O835   2.368   1_545  S
Zr830       O840   2.366       .  S
Zr830       O838   2.374       .  S
O831        H847   0.990       .  S
O832        H846   0.990       .  S
O832        H856   0.990       .  S
Zr833       O836   2.385   1_545  S
Zr833       O838   2.392       .  S
Zr833       O839   2.391   1_545  S
Zr834       O835   2.387       .  S
Zr834       O837   2.382       .  S
Zr834       O840   2.383   1_565  S
O835        H843   0.965       .  S
O838        H842   0.966       .  S
O839        H844   0.966       .  S
O857       Zr869   2.439       .  S
O857        C859   1.286       .  A
O858       Zr895   2.417   1_455  S
O858        C859   1.283       .  A
C859        C962   1.429       .  S
O860       Zr872   2.436       .  S
O860        C862   1.286       .  A
O861       Zr896   2.426       .  S
O861        C862   1.285       .  A
C862        C937   1.432       .  S
O863       Zr872   2.448       .  S
O863        C865   1.288       .  A
O864       Zr895   2.419       .  S
O864        C865   1.283       .  A
C865        C927   1.435       .  S
O866       Zr869   2.447       .  S
O866        C868   1.287       .  A
O867       Zr896   2.433   1_455  S
O867        C868   1.287       .  A
C868        C955   1.440       .  S
Zr869       O870   2.435       .  S
Zr869       O871   2.433       .  S
Zr869       O875   2.373   1_455  S
Zr869       O876   2.369   1_455  S
Zr869       O899   2.376       .  S
Zr869       O901   2.371       .  S
O870        H913   0.990       .  S
O871        H912   0.990       .  S
O871        H916   0.990       .  S
Zr872       O873   2.437       .  S
Zr872       O874   2.434       .  S
Zr872       O876   2.369       .  S
Zr872       O875   2.366       .  S
Zr872       O900   2.363       .  S
Zr872       O902   2.374       .  S
O873        H914   0.990       .  S
O873        H917   0.990       .  S
O874        H907   0.990       .  S
O875       Zr895   2.383       .  S
O876       Zr896   2.387       .  S
O876        H903   0.966       .  S
O877       Zr889   2.436       .  S
O877        C879   1.285       .  A
O878       Zr896   2.445   1_455  S
O878        C879   1.289       .  A
C879        C950   1.441       .  S
O880       Zr892   2.442       .  S
O880        C882   1.287       .  A
O881       Zr895   2.428       .  S
O881        C882   1.285       .  A
C882        C923   1.436       .  S
O883       Zr892   2.443       .  S
O883        C885   1.287       .  A
O884       Zr896   2.414       .  S
O884        C885   1.283       .  A
C885        C934   1.429       .  S
O886       Zr889   2.441       .  S
O886        C888   1.286       .  A
O887       Zr895   2.420   1_455  S
O887        C888   1.284       .  A
C888        C948   1.432       .  S
Zr889       O890   2.436       .  S
Zr889       O891   2.434       .  S
Zr889       O897   2.370   1_455  S
Zr889       O898   2.373   1_455  S
Zr889       O901   2.369       .  S
Zr889       O899   2.383       .  S
O890        H910   0.990       .  S
O890        H915   0.990       .  S
O891        H911   0.990       .  S
Zr892       O893   2.434       .  S
Zr892       O894   2.435       .  S
Zr892       O898   2.372       .  S
Zr892       O897   2.368       .  S
Zr892       O902   2.369       .  S
Zr892       O900   2.369       .  S
O893        H909   0.990       .  S
O894        H908   0.990       .  S
O894        H918   0.990       .  S
Zr895       O898   2.380       .  S
Zr895       O900   2.381       .  S
Zr895       O901   2.386   1_655  S
Zr896       O897   2.387       .  S
Zr896       O899   2.384   1_655  S
Zr896       O902   2.388       .  S
O897        H905   0.966       .  S
O900        H904   0.966       .  S
O901        H906   0.966       .  S
C919        C920   1.213       .  T
C921        C922   1.204       .  T
C923        C924   1.206       .  T
C925        C926   1.204       .  T
C927        C928   1.206       .  T
C929        C930   1.204       .  T
C931        C932   1.209       .  T
C933        C934   1.202       .  T
C935        C936   1.210       .  T
C937        C938   1.204       .  T
C939        C940   1.207       .  T
C941        C942   1.201       .  T
C943        C944   1.205       .  T
C945        C946   1.208       .  T
C947        C948   1.204       .  T
C949        C950   1.209       .  T
C951        C952   1.200       .  T
C953        C954   1.213       .  T
C955        C956   1.209       .  T
C957        C958   1.211       .  T
C959        C960   1.209       .  T
C961        C962   1.202       .  T
C963        C964   1.206       .  T
C965        C966   1.199       .  T
C967        C968   1.400       .  A
C967        C972   1.398       .  A
C967        H973   1.083       .  S
C968        C969   1.407       .  A
C969        C970   1.397       .  A
C969        H974   1.083       .  S
C970        C971   1.404       .  A
C970        H975   1.083       .  S
C971        C972   1.410       .  A
C972        H976   1.083       .  S
C977        C978   1.408       .  A
C977        C982   1.401       .  A
C977        H983   1.083       .  S
C978        C979   1.403       .  A
C979        C980   1.400       .  A
C979        H984   1.083       .  S
C980        C981   1.407       .  A
C980        H985   1.083       .  S
C981        C982   1.402       .  A
C982        H986   1.083       .  S
C987        C988   1.404       .  A
C987        C992   1.401       .  A
C987        H993   1.083       .  S
C988        C989   1.407       .  A
C989        C990   1.403       .  A
C989        H994   1.083       .  S
C990        C991   1.408       .  A
C990        H995   1.083       .  S
C991        C992   1.409       .  A
C992        H996   1.083       .  S
C997        C998   1.402       .  A
C997       C1002   1.396       .  A
C997       H1003   1.081       .  S
C998        C999   1.403       .  A
C999       C1000   1.392       .  A
C999       H1004   1.083       .  S
C1000      C1001   1.406       .  A
C1000      H1005   1.083       .  S
C1001      C1002   1.406       .  A
C1002      H1006   1.083       .  S
C1007      C1008   1.409       .  A
C1007      C1012   1.392       .  A
C1007      H1013   1.081       .  S
C1008      C1009   1.411       .  A
C1008      C1108   1.499   1_565  S
C1009      C1010   1.404       .  A
C1009      H1014   1.082       .  S
C1010      C1011   1.407       .  A
C1010      H1015   1.083       .  S
C1011      C1012   1.403       .  A
C1012      H1016   1.083       .  S
C1017      C1018   1.404       .  A
C1017      C1022   1.392       .  A
C1017      H1023   1.084       .  S
C1018      C1019   1.403       .  A
C1019      C1020   1.402       .  A
C1019      H1024   1.082       .  S
C1020      C1021   1.407       .  A
C1020      H1025   1.083       .  S
C1021      C1022   1.400       .  A
C1022      H1026   1.084       .  S
C1027      C1028   1.403       .  A
C1027      C1032   1.399       .  A
C1027      H1033   1.082       .  S
C1028      C1029   1.403       .  A
C1029      C1030   1.396       .  A
C1029      H1034   1.083       .  S
C1030      C1031   1.402       .  A
C1030      H1035   1.083       .  S
C1031      C1032   1.405       .  A
C1032      H1036   1.083       .  S
C1037      C1038   1.402       .  A
C1037      C1042   1.393       .  A
C1037      H1043   1.083       .  S
C1038      C1039   1.406       .  A
C1039      C1040   1.406       .  A
C1039      H1044   1.083       .  S
C1040      C1041   1.407       .  A
C1040      H1045   1.083       .  S
C1041      C1042   1.408       .  A
C1042      H1046   1.083       .  S
C1047      C1048   1.405       .  A
C1047      C1052   1.398       .  A
C1047      H1053   1.083       .  S
C1048      C1049   1.402       .  A
C1049      C1050   1.400       .  A
C1049      H1054   1.083       .  S
C1050      C1051   1.410       .  A
C1050      H1055   1.083       .  S
C1051      C1052   1.406       .  A
C1052      H1056   1.083       .  S
C1057      C1058   1.405       .  A
C1057      C1062   1.396       .  A
C1057      H1063   1.083       .  S
C1058      C1059   1.401       .  A
C1059      C1060   1.397       .  A
C1059      H1064   1.082       .  S
C1060      C1061   1.409       .  A
C1060      H1065   1.083       .  S
C1061      C1062   1.405       .  A
C1062      H1066   1.083       .  S
C1067      C1068   1.405       .  A
C1067      C1072   1.396       .  A
C1067      H1073   1.083       .  S
C1068      C1069   1.402       .  A
C1069      C1070   1.400       .  A
C1069      H1074   1.083       .  S
C1070      C1071   1.409       .  A
C1070      H1075   1.083       .  S
C1071      C1072   1.405       .  A
C1072      H1076   1.083       .  S
C1077      C1078   1.403       .  A
C1077      C1082   1.399       .  A
C1077      H1083   1.083       .  S
C1078      C1079   1.405       .  A
C1079      C1080   1.397       .  A
C1079      H1084   1.083       .  S
C1080      C1081   1.406       .  A
C1080      H1085   1.083       .  S
C1081      C1082   1.409       .  A
C1082      H1086   1.083       .  S
C1087      C1088   1.405       .  A
C1087      C1092   1.397       .  A
C1087      H1093   1.083       .  S
C1088      C1089   1.404       .  A
C1089      C1090   1.398       .  A
C1089      H1094   1.083       .  S
C1090      C1091   1.407       .  A
C1090      H1095   1.083       .  S
C1091      C1092   1.406       .  A
C1092      H1096   1.083       .  S
C1097      C1098   1.401       .  A
C1097      C1102   1.395       .  A
C1097      H1103   1.083       .  S
C1098      C1099   1.403       .  A
C1099      C1100   1.396       .  A
C1099      H1104   1.084       .  S
C1100      C1101   1.405       .  A
C1100      H1105   1.083       .  S
C1101      C1102   1.407       .  A
C1102      H1106   1.083       .  S
C1107      C1108   1.410       .  A
C1107      C1112   1.400       .  A
C1107      H1113   1.081       .  S
C1108      C1109   1.411       .  A
C1109      C1110   1.398       .  A
C1109      H1114   1.081       .  S
C1110      C1111   1.401       .  A
C1110      H1115   1.084       .  S
C1111      C1112   1.404       .  A
C1112      H1116   1.083       .  S
C1117      C1118   1.403       .  A
C1117      C1122   1.396       .  A
C1117      H1123   1.083       .  S
C1118      C1119   1.404       .  A
C1119      C1120   1.403       .  A
C1119      H1124   1.083       .  S
C1120      C1121   1.410       .  A
C1120      H1125   1.083       .  S
C1121      C1122   1.407       .  A
C1122      H1126   1.083       .  S
C1127      C1128   1.400       .  A
C1127      C1132   1.389       .  A
C1127      H1133   1.084       .  S
C1128      C1129   1.410       .  A
C1129      C1130   1.410       .  A
C1129      H1134   1.083       .  S
C1130      C1131   1.407       .  A
C1130      H1135   1.083       .  S
C1131      C1132   1.406       .  A
C1132      H1136   1.084       .  S
C1137      C1138   1.401       .  A
C1137      C1142   1.398       .  A
C1137      H1143   1.083       .  S
C1138      C1139   1.407       .  A
C1139      C1140   1.400       .  A
C1139      H1144   1.083       .  S
C1140      C1141   1.404       .  A
C1140      H1145   1.083       .  S
C1141      C1142   1.411       .  A
C1142      H1146   1.083       .  S
C1147      C1148   1.399       .  A
C1147      C1152   1.389       .  A
C1147      H1153   1.084       .  S
C1148      C1149   1.407       .  A
C1149      C1150   1.408       .  A
C1149      H1154   1.082       .  S
C1150      C1151   1.407       .  A
C1150      H1155   1.083       .  S
C1151      C1152   1.405       .  A
C1152      H1156   1.084       .  S
C1157      C1158   1.399       .  A
C1157      C1162   1.385       .  A
C1157      H1163   1.084       .  S
C1158      C1159   1.406       .  A
C1159      C1160   1.406       .  A
C1159      H1164   1.083       .  S
C1160      C1161   1.408       .  A
C1160      H1165   1.083       .  S
C1161      C1162   1.403       .  A
C1162      H1166   1.083       .  S
C1167      C1168   1.400       .  A
C1167      C1172   1.391       .  A
C1167      H1173   1.084       .  S
C1168      C1169   1.406       .  A
C1169      C1170   1.408       .  A
C1169      H1174   1.083       .  S
C1170      C1171   1.408       .  A
C1170      H1175   1.083       .  S
C1171      C1172   1.405       .  A
C1172      H1176   1.083       .  S
C1177      C1178   1.398       .  A
C1177      C1182   1.386       .  A
C1177      H1183   1.084       .  S
C1178      C1179   1.406       .  A
C1179      C1180   1.407       .  A
C1179      H1184   1.083       .  S
C1180      C1181   1.408       .  A
C1180      H1185   1.083       .  S
C1181      C1182   1.406       .  A
C1182      H1186   1.083       .  S
C1187      C1188   1.404       .  A
C1187      C1192   1.405       .  A
C1187      H1193   1.083       .  S
C1188      C1189   1.401       .  A
C1189      C1190   1.388       .  A
C1189      H1194   1.084       .  S
C1190      C1191   1.403       .  A
C1190      H1195   1.083       .  S
C1191      C1192   1.409       .  A
C1192      H1196   1.083       .  S
C1197      C1198   1.408       .  A
C1197      C1202   1.409       .  A
C1197      H1203   1.083       .  S
C1198      C1199   1.401       .  A
C1199      C1200   1.389       .  A
C1199      H1204   1.084       .  S
C1200      C1201   1.404       .  A
C1200      H1205   1.084       .  S
C1201      C1202   1.408       .  A
C1202      H1206   1.083       .  S
