geometry optimzed in LAMMPS
_audit_creation_date              2020-11-30 
_audit_creation_method            'lammps2cif' 
_symmetry_space_group_name_H-M    'P1' 
_symmetry_Int_Tables_number       1 
_symmetry_cell_setting            triclinic 
loop_ 
_symmetry_equiv_pos_as_xyz 
  x,y,z 
_cell_length_a                    64.1678019 
_cell_length_b                    64.25903978197273 
_cell_length_c                    64.44567839153555 
_cell_angle_alpha                 90.24027040505605 
_cell_angle_beta                  90.26263334886464 
_cell_angle_gamma                 90.14651273052333 
loop_ 
_atom_site_label 
_atom_site_type_symbol 
_atom_site_fract_x 
_atom_site_fract_y 
_atom_site_fract_z 
_atom_site_charge 
C1          C  0.34751376  0.65350765  0.15068839     0.87000
C2          C  0.36393799  0.64361472  0.16520072    -0.53200
C3          C  0.37743720  0.63071633  0.15514604     0.09900
C4          C  0.37299127  0.62845064  0.13192016     0.20900
C5          C  0.36037166  0.66386964  0.13326579    -0.54000
C6          C  0.37351688  0.65056780  0.12336309     0.10000
C7          C  0.33660036  0.63483011  0.13979125    -0.53500
C8          C  0.35011716  0.62155902  0.12995760     0.10600
H9          H  0.36534778  0.64728277  0.18161216     0.15100
H10         H  0.38424479  0.61800647  0.12417089     0.00900
H11         H  0.35874131  0.67994727  0.12850455     0.15400
H12         H  0.31983560  0.63256412  0.13973095     0.15200
C13         C  0.66273531  0.33091599  0.15749855     0.87000
C14         C  0.67750091  0.34560013  0.14538125    -0.53200
C15         C  0.66749139  0.35812690  0.13143708     0.09900
C16         C  0.64388835  0.35442527  0.13062336     0.20900
C17         C  0.64612523  0.34555080  0.16708244    -0.54000
C18         C  0.63606300  0.35771899  0.15284354     0.10000
C19         C  0.65068802  0.31867402  0.14050746    -0.53500
C20         C  0.64098435  0.33110924  0.12625739     0.10600
H21         H  0.69421228  0.34631959  0.14801118     0.15100
H22         H  0.63599875  0.36440368  0.11910738     0.00900
H23         H  0.64213223  0.34576084  0.18340786     0.15400
H24         H  0.65022565  0.30180146  0.13969093     0.15200
C25         C  0.66571959  0.65434862  0.15440134     0.87000
C26         C  0.64803089  0.66498886  0.14190872    -0.53200
C27         C  0.63620071  0.65153125  0.13039373     0.09900
C28         C  0.64333092  0.62886102  0.13203191     0.20900
C29         C  0.65450677  0.63734822  0.16710166    -0.54000
C30         C  0.64303012  0.62384813  0.15523185     0.10000
C31         C  0.67834927  0.64220996  0.13784303    -0.53500
C32         C  0.66640937  0.62900382  0.12594238     0.10600
H33         H  0.64467951  0.68150871  0.14242836     0.15100
H34         H  0.63374398  0.61794569  0.12262120     0.00900
H35         H  0.65595751  0.63584833  0.18382260     0.15400
H36         H  0.69493809  0.64438484  0.13539131     0.15200
C37         C  0.34428408  0.33495516  0.15190016     0.87000
C38         C  0.36140193  0.32239436  0.14077164    -0.53200
C39         C  0.37515688  0.33445175  0.13008319     0.09900
C40         C  0.37022769  0.35773843  0.13108943     0.20900
C41         C  0.35622896  0.35126587  0.16530795    -0.54000
C42         C  0.36968602  0.36335247  0.15419785     0.10000
C43         C  0.33386631  0.34800378  0.13462840    -0.53500
C44         C  0.34763316  0.35976142  0.12355163     0.10600
H45         H  0.36273837  0.30557894  0.14169023     0.15100
H46         H  0.38139653  0.36724882  0.12217110     0.00900
H47         H  0.35373736  0.35370812  0.18176598     0.15400
H48         H  0.31729124  0.34760989  0.13121024     0.15200
O49         O  0.48073501  0.47442055  0.20046110    -0.72400
O50         O  0.52991075  0.51450475  0.20568902    -0.73400
O51         O  0.48539759  0.51855647  0.20485917    -0.62000
O52         O  0.52534529  0.47014744  0.20176177    -0.70400
O53         O  0.52448489  0.47197693  0.16740128    -0.70000
O54         O  0.48880307  0.52301582  0.17090839    -0.61200
O55         O  0.53208019  0.51497766  0.17133517    -0.73800
O56         O  0.48111423  0.47983520  0.16649964    -0.72500
Cu57       Cu  0.50532010  0.49428346  0.20448114     1.04600
Cu58       Cu  0.50662922  0.49753930  0.16791462     1.04300
C59         C  0.47299703  0.47125625  0.18235788     0.93800
C60         C  0.53889034  0.52067364  0.18909079     0.92900
C61         C  0.48114964  0.52862591  0.18832675     0.85100
C62         C  0.53101677  0.46330978  0.18400956     0.91300
C63         C  0.34630018  0.32787747  0.83287079     0.87000
C64         C  0.33614172  0.34478429  0.84685436    -0.53200
C65         C  0.35012406  0.35571018  0.85875187     0.09900
C66         C  0.37265037  0.34843473  0.85583798     0.20900
C67         C  0.36289098  0.33986295  0.82039345    -0.54000
C68         C  0.37680606  0.35055402  0.83250022     0.10000
C69         C  0.35880378  0.31410118  0.84806870    -0.53500
C70         C  0.37241843  0.32504438  0.86030457     0.10600
H71         H  0.31963312  0.34830365  0.84690932     0.15100
H72         H  0.38395553  0.35698146  0.86567542     0.00900
H73         H  0.36341044  0.34000043  0.80355440     0.15400
H74         H  0.35652599  0.29741836  0.84948641     0.15200
C75         C  0.66361311  0.33094760  0.83704659     0.87000
C76         C  0.65213472  0.34887374  0.82579404    -0.53200
C77         C  0.64096067  0.36154496  0.83877258     0.09900
C78         C  0.64200573  0.35472164  0.86154316     0.20900
C79         C  0.67677862  0.34194494  0.85414451    -0.54000
C80         C  0.66522363  0.35424179  0.86717044     0.10000
C81         C  0.64617126  0.31945550  0.84906591    -0.53500
C82         C  0.63478084  0.33207455  0.86163547     0.10600
H83         H  0.65289008  0.35127801  0.80915074     0.15100
H84         H  0.63273939  0.36442170  0.87221388     0.00900
H85         H  0.69344024  0.33972424  0.85605518     0.15400
H86         H  0.64249443  0.30305953  0.84737055     0.15200
C87         C  0.66922041  0.65118084  0.83542193     0.87000
C88         C  0.65229742  0.63884165  0.82343808    -0.53200
C89         C  0.63858424  0.62859035  0.83599330     0.09900
C90         C  0.64350119  0.63120705  0.85920472     0.20900
C91         C  0.65700061  0.66531866  0.85048779    -0.54000
C92         C  0.64371874  0.65471062  0.86309942     0.10000
C93         C  0.67978708  0.63467383  0.84956888    -0.53500
C94         C  0.66619944  0.62407143  0.86202276     0.10600
H95         H  0.65104894  0.63866251  0.80663024     0.15100
H96         H  0.63235350  0.62300429  0.86929976     0.00900
H97         H  0.65905310  0.68207956  0.85138308     0.15400
H98         H  0.69635289  0.63144780  0.84955199     0.15200
C99         C  0.34484405  0.65603371  0.83315829     0.87000
C100        C  0.33302666  0.64520741  0.85115154    -0.53200
C101        C  0.34568934  0.63357079  0.86365437     0.09900
C102        C  0.36850027  0.63349494  0.85700419     0.20900
C103        C  0.36255611  0.66832740  0.84402304    -0.54000
C104        C  0.37512478  0.65642577  0.85631459     0.10000
C105        C  0.35594971  0.63800035  0.82174066    -0.53500
C106        C  0.36806582  0.62605501  0.83445726     0.10600
H107        H  0.31645422  0.64647158  0.85398477     0.15100
H108        H  0.37842436  0.62370406  0.86710983     0.00900
H109        H  0.36505411  0.68490115  0.84190446     0.15400
H110        H  0.35374969  0.63454955  0.80536637     0.15200
O111        O  0.33412997  0.47312531  0.96642075    -0.72400
O112        O  0.33399401  0.51284372  0.01410146    -0.73400
O113        O  0.33347260  0.46930978  0.00992600    -0.62000
O114        O  0.33443468  0.51697253  0.97048650    -0.70400
O115        O  0.29991713  0.51592441  0.96827318    -0.70000
O116        O  0.29893755  0.47018706  0.01126826    -0.61200
O117        O  0.29950530  0.51472089  0.01314734    -0.73800
O118        O  0.29962121  0.47127379  0.96666520    -0.72500
Cu119      Cu  0.33511269  0.49306972  0.99022156     1.04600
Cu120      Cu  0.29818512  0.49307278  0.98978283     1.04300
C121        C  0.31716971  0.46552260  0.95920783     0.93800
C122        C  0.31697862  0.52008980  0.02129129     0.92900
C123        C  0.31629687  0.46242962  0.01715094     0.85100
C124        C  0.31738611  0.52380413  0.96287954     0.91300
O125        O  0.48188319  0.66708973  0.01094562    -0.72400
O126        O  0.53310397  0.66549785  0.97681553    -0.73400
O127        O  0.52474965  0.66771086  0.01948949    -0.62000
O128        O  0.49014760  0.66471416  0.96829049    -0.70400
O129        O  0.48752184  0.69910012  0.96709895    -0.70000
O130        O  0.52701323  0.70205112  0.01692182    -0.61200
O131        O  0.53202403  0.69973084  0.97252490    -0.73800
O132        O  0.48244356  0.70161462  0.01146916    -0.72500
Cu133      Cu  0.50745385  0.66518429  0.99393266     1.04600
Cu134      Cu  0.50723101  0.70198008  0.99194304     1.04300
C135        C  0.47425069  0.68435848  0.01703979     0.93800
C136        C  0.54053469  0.68209307  0.96894965     0.92900
C137        C  0.53175797  0.68508667  0.02617918     0.85100
C138        C  0.48307772  0.68109034  0.95968173     0.91300
O139        O  0.68491806  0.46665652  0.97754272    -0.72400
O140        O  0.68524643  0.51609385  0.01574816    -0.73400
O141        O  0.68564858  0.51042062  0.97251511    -0.62000
O142        O  0.68409382  0.47254936  0.02093535    -0.70400
O143        O  0.71848367  0.46952703  0.02135222    -0.70000
O144        O  0.72012565  0.51197480  0.97338252    -0.62000
O145        O  0.71967111  0.51460573  0.01838973    -0.73800
O146        O  0.71944637  0.46696822  0.97633985    -0.72500
Cu147      Cu  0.68394109  0.49141452  0.99663625     1.04600
Cu148      Cu  0.72078972  0.49072604  0.99737775     1.04300
C149        C  0.70196455  0.45912146  0.97065866     0.93800
C150        C  0.70232822  0.52305757  0.02334593     0.92900
C151        C  0.70268444  0.51774628  0.96547112     0.85100
C152        C  0.70057823  0.46484538  0.02885691     0.91300
O153        O  0.48713617  0.31325181  0.02209913    -0.72400
O154        O  0.52375230  0.31403150  0.97225944    -0.73400
O155        O  0.48037422  0.31533679  0.97894251    -0.62000
O156        O  0.53045929  0.31211666  0.01538856    -0.70400
O157        O  0.52816625  0.27768880  0.01655922    -0.70000
O158        O  0.48027507  0.28102914  0.97491811    -0.61200
O159        O  0.52496690  0.27952094  0.97214106    -0.73800
O160        O  0.48344170  0.27900391  0.01939956    -0.72500
Cu161      Cu  0.50546964  0.31479154  0.99722604     1.04600
Cu162      Cu  0.50415704  0.27798891  0.99569284     1.04300
C163        C  0.47913945  0.29622014  0.02842644     0.93800
C164        C  0.53055367  0.29702641  0.96457107     0.92900
C165        C  0.47259217  0.29892984  0.97079952     0.85100
C166        C  0.53710485  0.29468031  0.02208151     0.91300
O167        O  0.48373664  0.46947277  0.83183196    -0.72400
O168        O  0.51921988  0.52016801  0.83325805    -0.73400
O169        O  0.47607786  0.51252475  0.82933876    -0.62000
O170        O  0.52671855  0.47689499  0.83556819    -0.70400
O171        O  0.52893433  0.47344485  0.80138490    -0.70000
O172        O  0.48029613  0.51305288  0.79517854    -0.61200
O173        O  0.52447119  0.51788746  0.79931951    -0.73800
O174        O  0.48456313  0.46857652  0.79741188    -0.72500
Cu175      Cu  0.50132296  0.49482901  0.83360288     1.04600
Cu176      Cu  0.50467027  0.49318999  0.79702223     1.04300
C177        C  0.47838095  0.46102738  0.81468315     0.93800
C178        C  0.52774183  0.52695589  0.81676825     0.92900
C179        C  0.47040124  0.51876406  0.81140237     0.85100
C180        C  0.53559518  0.46915491  0.81961554     0.91300
C181        C  0.66352777  0.16091697  0.65106278     0.87000
C182        C  0.65123363  0.14552247  0.66472601    -0.53200
C183        C  0.63917737  0.13181710  0.65372345     0.09900
C184        C  0.63999202  0.13520495  0.63017100     0.20900
C185        C  0.67563663  0.14695483  0.63559215    -0.54000
C186        C  0.66320466  0.13352669  0.62439690     0.10000
C187        C  0.64671193  0.17160963  0.63755451    -0.53500
C188        C  0.63426533  0.15813935  0.62674322     0.10600
H189        H  0.65254101  0.14508435  0.68152367     0.15100
H190        H  0.62971950  0.12432413  0.62166627     0.00900
H191        H  0.69239449  0.14788892  0.63355496     0.15400
H192        H  0.64457701  0.18830971  0.63664558     0.15200
C193        C  0.66557524  0.14646409  0.32811945     0.87000
C194        C  0.68029345  0.13122839  0.33952510    -0.53200
C195        C  0.67019135  0.11790331  0.35253106     0.09900
C196        C  0.64663968  0.12129871  0.35327118     0.20900
C197        C  0.64891839  0.13234979  0.31746774    -0.54000
C198        C  0.63879524  0.11945480  0.33091317     0.10000
C199        C  0.65344330  0.15761463  0.34572899    -0.53500
C200        C  0.64363824  0.14424337  0.35907407     0.10600
H201        H  0.69706174  0.13094331  0.33735971     0.15100
H202        H  0.63878546  0.11030982  0.36386460     0.00900
H203        H  0.64452405  0.13335500  0.30123337     0.15400
H204        H  0.65286980  0.17440935  0.34747775     0.15200
C205        C  0.35053070  0.15340721  0.65313969     0.87000
C206        C  0.36753549  0.14244960  0.66631046    -0.53200
C207        C  0.37921606  0.12851169  0.65523359     0.09900
C208        C  0.37257352  0.12668826  0.63244403     0.20900
C209        C  0.36255651  0.16294161  0.63460362    -0.54000
C210        C  0.37392963  0.14871409  0.62364307     0.10000
C211        C  0.33762761  0.13554858  0.64341521    -0.53500
C212        C  0.34933539  0.12150275  0.63273822     0.10600
H213        H  0.37012948  0.14556882  0.68269002     0.15100
H214        H  0.38174456  0.11519071  0.62355344     0.00900
H215        H  0.36171229  0.17916039  0.63011323     0.15400
H216        H  0.32080758  0.13424858  0.64475345     0.15200
C217        C  0.34150605  0.15097773  0.32642180     0.87000
C218        C  0.35756145  0.16369484  0.33901355    -0.53200
C219        C  0.37083590  0.15182596  0.35047640     0.09900
C220        C  0.36654435  0.12838006  0.34867197     0.20900
C221        C  0.35470324  0.13532419  0.31360553    -0.54000
C222        C  0.36765286  0.12339841  0.32546884     0.10000
C223        C  0.33031811  0.13734672  0.34270290    -0.53500
C224        C  0.34347324  0.12543179  0.35449022     0.10600
H225        H  0.35857110  0.18056166  0.33853600     0.15100
H226        H  0.37761353  0.11914904  0.35794686     0.00900
H227        H  0.35352467  0.13311675  0.29696810     0.15400
H228        H  0.31351287  0.13710979  0.34454523     0.15200
O229        O  0.47935859  0.19338820  0.50596368    -0.72400
O230        O  0.52854511  0.19345788  0.46670453    -0.73400
O231        O  0.48397322  0.19304563  0.46153278    -0.62000
O232        O  0.52368824  0.19351618  0.51122671    -0.70400
O233        O  0.52138676  0.15907451  0.51184575    -0.70000
O234        O  0.48635326  0.15860998  0.46090187    -0.61200
O235        O  0.52957096  0.15903000  0.46877552    -0.73800
O236        O  0.47830250  0.15892140  0.50407592    -0.72500
Cu237      Cu  0.50388165  0.19466787  0.48632480     1.04600
Cu238      Cu  0.50390198  0.15780805  0.48637143     1.04300
C239        C  0.47113400  0.17604342  0.51118952     0.93800
C240        C  0.53696407  0.17610122  0.46181314     0.92900
C241        C  0.47933885  0.17546983  0.45324098     0.85100
C242        C  0.52822609  0.17605368  0.51962264     0.91300
C243        C  0.66740512  0.82826745  0.33743183     0.87000
C244        C  0.65401771  0.81847728  0.35489033    -0.53200
C245        C  0.64359323  0.83278581  0.36670915     0.09900
C246        C  0.64730568  0.85528033  0.35975719     0.20900
C247        C  0.65187347  0.84175678  0.32491549    -0.54000
C248        C  0.64118346  0.85577631  0.33677167     0.10000
C249        C  0.68165919  0.84411872  0.34885854    -0.53500
C250        C  0.67090907  0.85838846  0.36033855     0.10600
H251        H  0.65303805  0.80190907  0.35784129     0.15100
H252        H  0.63905907  0.86709413  0.36916623     0.00900
H253        H  0.64923606  0.83995078  0.30835011     0.15400
H254        H  0.69851119  0.84440384  0.34744343     0.15200
C255        C  0.33426705  0.82997963  0.33727606     0.87000
C256        C  0.32336707  0.84274396  0.35463075    -0.53200
C257        C  0.33698361  0.85350410  0.36709756     0.09900
C258        C  0.35977975  0.85085715  0.36084315     0.20900
C259        C  0.34757032  0.84622045  0.32547369    -0.54000
C260        C  0.36072937  0.85734607  0.33808521     0.10000
C261        C  0.35029560  0.81630914  0.34895550    -0.53500
C262        C  0.36389559  0.82743631  0.36100859     0.10600
H263        H  0.30666438  0.84303211  0.35711345     0.15100
H264        H  0.37071133  0.85971134  0.37087432     0.00900
H265        H  0.34613794  0.84908617  0.30893751     0.15400
H266        H  0.35116232  0.79950865  0.34731124     0.15200
C267        C  0.34318610  0.83637228  0.65322926     0.87000
C268        C  0.35528242  0.82623121  0.63514616    -0.53200
C269        C  0.36501059  0.84021815  0.62248958     0.09900
C270        C  0.36190909  0.86288425  0.62934147     0.20900
C271        C  0.35983874  0.85001757  0.66461657    -0.54000
C272        C  0.36984350  0.86376757  0.65180513     0.10000
C273        C  0.32840691  0.85208533  0.64270627    -0.53500
C274        C  0.33834253  0.86608039  0.63037676     0.10600
H275        H  0.35588994  0.80953773  0.63260894     0.15100
H276        H  0.36946826  0.87435052  0.61907376     0.00900
H277        H  0.36419726  0.84829076  0.68077654     0.15400
H278        H  0.31164018  0.85217109  0.64493093     0.15200
C279        C  0.66597357  0.82963634  0.65363467     0.87000
C280        C  0.65150398  0.81703961  0.63869708    -0.53200
C281        C  0.63654579  0.82884691  0.62913702     0.09900
C282        C  0.63775226  0.85196822  0.63514612     0.20900
C283        C  0.67499996  0.84709260  0.63993847    -0.54000
C284        C  0.66020073  0.85888459  0.63013639     0.10000
C285        C  0.65091137  0.84083726  0.66858677    -0.53500
C286        C  0.63609879  0.85237998  0.65880897     0.10600
H287        H  0.65251978  0.80041742  0.63611075     0.15100
H288        H  0.62572064  0.86166568  0.62764557     0.00900
H289        H  0.69161114  0.84969831  0.63822227     0.15400
H290        H  0.65157104  0.83929200  0.68535352     0.15200
O291        O  0.67513114  0.01057514  0.46953264    -0.72400
O292        O  0.67497109  0.97069641  0.51667915    -0.73400
O293        O  0.67238617  0.01449601  0.51322487    -0.62000
O294        O  0.67785961  0.96752846  0.47278988    -0.70400
O295        O  0.71234332  0.96942488  0.47515310    -0.70000
O296        O  0.70668364  0.01727103  0.51654065    -0.61200
O297        O  0.70936627  0.97243435  0.51964062    -0.73800
O298        O  0.70948653  0.01400775  0.47173491    -0.72500
Cu299      Cu  0.67400966  0.99075486  0.49310133     1.04600
Cu300      Cu  0.71077950  0.99338762  0.49591238     1.04300
C301        C  0.69213738  0.01819234  0.46274756     0.93800
C302        C  0.69183764  0.96501762  0.52556794     0.92900
C303        C  0.68832917  0.02345730  0.52120434     0.85100
C304        C  0.69587220  0.96140355  0.46714713     0.91300
O305        O  0.53218395  0.96537279  0.67090122    -0.72400
O306        O  0.49367627  0.01375821  0.66332848    -0.73400
O307        O  0.53734173  0.00882684  0.66675585    -0.62000
O308        O  0.48901419  0.97008101  0.66714784    -0.70400
O309        O  0.48698899  0.97205033  0.70143112    -0.70000
O310        O  0.53458033  0.01475304  0.70054937    -0.61200
O311        O  0.48974864  0.01661948  0.69739796    -0.73800
O312        O  0.53177158  0.97021286  0.70502966    -0.72500
Cu313      Cu  0.51311901  0.98945351  0.66594733     1.04600
Cu314      Cu  0.51067764  0.99356368  0.70240360     1.04300
C315        C  0.53812874  0.96020246  0.68908682     0.93800
C316        C  0.48536870  0.02265634  0.67900628     0.92900
C317        C  0.54364025  0.01807462  0.68318073     0.85100
C318        C  0.48065416  0.96435789  0.68411859     0.91300
O319        O  0.29966397  0.01742050  0.46951812    -0.72400
O320        O  0.29489971  0.97657672  0.51795860    -0.73400
O321        O  0.29840005  0.02084182  0.51399715    -0.62000
O322        O  0.29557518  0.97297537  0.47313524    -0.70400
O323        O  0.32991366  0.96964551  0.47554095    -0.70000
O324        O  0.33287459  0.01788555  0.51460745    -0.61200
O325        O  0.32945132  0.97522028  0.51893432    -0.73800
O326        O  0.33391782  0.01311304  0.47096361    -0.72500
Cu327      Cu  0.29580481  0.99704272  0.49353141     1.04600
Cu328      Cu  0.33261456  0.99388632  0.49492699     1.04300
C329        C  0.31794994  0.02154528  0.46272909     0.93800
C330        C  0.31183759  0.97022657  0.52645217     0.92900
C331        C  0.31617543  0.02638208  0.52116288     0.85100
C332        C  0.31240057  0.96364109  0.46812331     0.91300
O333        O  0.52213973  0.00986585  0.32619784    -0.72400
O334        O  0.47869491  0.96481293  0.32775625    -0.73400
O335        O  0.52268104  0.96569594  0.32900257    -0.62000
O336        O  0.47804848  0.00816023  0.32570692    -0.70400
O337        O  0.47845620  0.00709270  0.29128887    -0.70000
O338        O  0.52441007  0.96306021  0.29472405    -0.61200
O339        O  0.47959714  0.96232262  0.29341423    -0.73800
O340        O  0.52340331  0.00753951  0.29186541    -0.72500
Cu341      Cu  0.50048131  0.98722435  0.32826872     1.04600
Cu342      Cu  0.50152944  0.98495514  0.29153522     1.04300
C343        C  0.52957961  0.01588633  0.30883479     0.93800
C344        C  0.47203335  0.95669872  0.31083555     0.92900
C345        C  0.53043763  0.95735162  0.31280606     0.85100
C346        C  0.47077306  0.01406512  0.30829035     0.91300
O347        O  0.52234562  0.78811116  0.51690538    -0.72400
O348        O  0.48026553  0.78873998  0.46906442    -0.73400
O349        O  0.52516993  0.78766733  0.47233107    -0.62000
O350        O  0.47749675  0.78897452  0.51353240    -0.70400
O351        O  0.47748277  0.82342964  0.51150352    -0.70000
O352        O  0.52678952  0.82211111  0.47417268    -0.61200
O353        O  0.48325351  0.82312421  0.46821631    -0.73800
O354        O  0.52090182  0.82259505  0.51754651    -0.72500
Cu355      Cu  0.50129281  0.78705001  0.49294411     1.04600
Cu356      Cu  0.50214495  0.82390600  0.49284233     1.04300
C357        C  0.52778968  0.80556422  0.52498012     0.93800
C358        C  0.47544640  0.80629137  0.46101683     0.92900
C359        C  0.53371293  0.80487530  0.46712766     0.85100
C360        C  0.46981924  0.80659921  0.51868791     0.91300
C361        C  0.84704306  0.34049124  0.65986794     0.87000
C362        C  0.86359493  0.32691600  0.64897997    -0.53200
C363        C  0.87667957  0.33791446  0.63645445     0.09900
C364        C  0.87180826  0.36120480  0.63561644     0.20900
C365        C  0.85974743  0.35787704  0.67098660    -0.54000
C366        C  0.87255372  0.36887043  0.65816161     0.10000
C367        C  0.83568267  0.35185913  0.64193262    -0.53500
C368        C  0.84886885  0.36245201  0.62901468     0.10600
H369        H  0.86486635  0.31020774  0.65108809     0.15100
H370        H  0.88239181  0.36983033  0.62520991     0.00900
H371        H  0.85850066  0.36155064  0.68736857     0.15400
H372        H  0.81897410  0.35099230  0.63934859     0.15200
C373        C  0.84473298  0.33334027  0.33415381     0.87000
C374        C  0.86143344  0.34705572  0.32345060    -0.53200
C375        C  0.87315903  0.35880013  0.33698233     0.09900
C376        C  0.86656772  0.35626743  0.35967775     0.20900
C377        C  0.85726599  0.32074535  0.35055201    -0.54000
C378        C  0.86853029  0.33292492  0.36402612     0.10000
C379        C  0.83165456  0.34869926  0.34718943    -0.53500
C380        C  0.84318020  0.36089021  0.36029102     0.10600
H381        H  0.86427893  0.34670149  0.30686220     0.15100
H382        H  0.87565955  0.36617373  0.37053829     0.00900
H383        H  0.85720530  0.30394993  0.35178526     0.15400
H384        H  0.81485226  0.35015087  0.34577728     0.15200
C385        C  0.85101571  0.65205215  0.33173096     0.87000
C386        C  0.86784293  0.66398137  0.34445872    -0.53200
C387        C  0.87894377  0.65155722  0.35772805     0.09900
C388        C  0.87181817  0.62879540  0.35738696     0.20900
C389        C  0.86313635  0.63404112  0.32119736    -0.54000
C390        C  0.87380765  0.62177959  0.33482071     0.10000
C391        C  0.83732258  0.64112796  0.34829284    -0.53500
C392        C  0.84849681  0.62923439  0.36194011     0.10600
H393        H  0.87109997  0.68044615  0.34254561     0.15100
H394        H  0.88052450  0.61875280  0.36830569     0.00900
H395        H  0.86307163  0.63092322  0.30464793     0.15400
H396        H  0.82060729  0.64330555  0.34957400     0.15200
C397        C  0.84890328  0.66215958  0.64901839     0.87000
C398        C  0.86668567  0.65014948  0.65999921    -0.53200
C399        C  0.87807614  0.63778456  0.64689216     0.09900
C400        C  0.87019306  0.63820603  0.62435246     0.20900
C401        C  0.85989209  0.67384917  0.63114474    -0.54000
C402        C  0.87082698  0.66116075  0.61818404     0.10000
C403        C  0.83573907  0.64520610  0.63802464    -0.53500
C404        C  0.84700676  0.63247582  0.62533684     0.10600
H405        H  0.87030319  0.65189068  0.67638687     0.15100
H406        H  0.87913645  0.62812492  0.61364107     0.00900
H407        H  0.85899413  0.69049685  0.62861685     0.15400
H408        H  0.81910258  0.64323742  0.64040807     0.15200
O409        O  0.98693329  0.70805164  0.51214380    -0.72400
O410        O  0.03567798  0.70318151  0.47265642    -0.73400
O411        O  0.99105134  0.70514238  0.46803674    -0.62000
O412        O  0.03120051  0.70608030  0.51686868    -0.70400
O413        O  0.02712385  0.67193715  0.51994977    -0.70000
O414        O  0.99181515  0.67064151  0.46880501    -0.61200
O415        O  0.03526224  0.66894988  0.47706776    -0.73800
O416        O  0.98394738  0.67362676  0.51156511    -0.72500
Cu417      Cu  0.01130810  0.70690445  0.49232047     1.04600
Cu418      Cu  0.00949352  0.67015308  0.49438144     1.04300
C419        C  0.97753539  0.69141196  0.51764824     0.93800
C420        C  0.04346123  0.68519325  0.46917633     0.92900
C421        C  0.98519783  0.68751563  0.46073905     0.85100
C422        C  0.03503746  0.68905624  0.52636100     0.91300
O423        O  0.03003550  0.47787822  0.69690301    -0.72400
O424        O  0.98967404  0.52700669  0.69779677    -0.73400
O425        O  0.98518407  0.48224061  0.69587094    -0.62000
O426        O  0.03435538  0.52259110  0.69879693    -0.70400
O427        O  0.03574759  0.52181495  0.66441030    -0.70000
O428        O  0.98544911  0.48552319  0.66163668    -0.61200
O429        O  0.99238707  0.52883694  0.66356811    -0.73800
O430        O  0.02872389  0.47862719  0.66252240    -0.72500
Cu431      Cu  0.00978458  0.50239516  0.69867691     1.04600
Cu432      Cu  0.01060202  0.50376091  0.66197380     1.04300
C433        C  0.03534356  0.47035799  0.67926058     0.93800
C434        C  0.98498161  0.53578023  0.68058748     0.92900
C435        C  0.97748691  0.47780388  0.67800330     0.85100
C436        C  0.04296778  0.52814238  0.68180690     0.91300
O437        O  0.03346884  0.46927053  0.28806393    -0.72400
O438        O  0.98791633  0.51244884  0.28899915    -0.73400
O439        O  0.03267726  0.51392856  0.28908171    -0.62000
O440        O  0.98874855  0.46776651  0.28852008    -0.70400
O441        O  0.99121010  0.46626053  0.32280783    -0.70000
O442        O  0.03057228  0.51476461  0.32340928    -0.61200
O443        O  0.98662341  0.51002991  0.32331266    -0.73800
O444        O  0.03512055  0.47099248  0.32243330    -0.72500
Cu445      Cu  0.01069163  0.49087460  0.28738704     1.04600
Cu446      Cu  0.01090224  0.49049890  0.32412470     1.04300
C447        C  0.04172609  0.46366566  0.30521741     0.93800
C448        C  0.97980451  0.51766553  0.30632387     0.92900
C449        C  0.03821946  0.52179442  0.30656721     0.85100
C450        C  0.98336711  0.45956706  0.30578915     0.91300
O451        O  0.02652648  0.32500841  0.47318240    -0.72400
O452        O  0.98851044  0.33086326  0.52160977    -0.73400
O453        O  0.03174274  0.32639068  0.51653377    -0.62000
O454        O  0.98298814  0.32969229  0.47809491    -0.70400
O455        O  0.98083606  0.29523899  0.47680571    -0.70000
O456        O  0.02703125  0.29235254  0.51997531    -0.61200
O457        O  0.98277513  0.29678655  0.52140103    -0.73800
O458        O  0.02540271  0.29058709  0.47550662    -0.72500
Cu459      Cu  0.00754635  0.32911527  0.49726276     1.04600
Cu460      Cu  0.00386346  0.29244950  0.49842754     1.04300
C461        C  0.03244714  0.30708019  0.46696827     0.93800
C462        C  0.97956926  0.31485160  0.52916249     0.92900
C463        C  0.03681128  0.30908543  0.52475468     0.85100
C464        C  0.97432529  0.31316228  0.47114335     0.91300
O465        O  0.80062464  0.51873612  0.47396747    -0.72400
O466        O  0.80170536  0.47183100  0.51576070    -0.73400
O467        O  0.80180016  0.51631152  0.51890185    -0.62000
O468        O  0.80109003  0.47417420  0.47103642    -0.70400
O469        O  0.83550296  0.47714856  0.46958875    -0.70000
O470        O  0.83627159  0.51387750  0.51912346    -0.61200
O471        O  0.83612849  0.47048909  0.51309530    -0.73800
O472        O  0.83511246  0.52063645  0.47565891    -0.72500
Cu473      Cu  0.79999125  0.49526644  0.49493236     1.04600
Cu474      Cu  0.83686578  0.49555341  0.49434682     1.04300
C475        C  0.81775935  0.52718706  0.46838383     0.93800
C476        C  0.81912792  0.46364274  0.52082899     0.92900
C477        C  0.81953213  0.52105108  0.52689710     0.85100
C478        C  0.81850646  0.46960783  0.46250501     0.91300
C479        C  0.16674096  0.33531603  0.65882200     0.87000
C480        C  0.17930297  0.35163117  0.64640941    -0.53200
C481        C  0.16723314  0.36480017  0.63493975     0.09900
C482        C  0.14388923  0.36015739  0.63660024     0.20900
C483        C  0.15094565  0.34824875  0.67160705    -0.54000
C484        C  0.13872405  0.36108316  0.65980703     0.10000
C485        C  0.15328653  0.32406311  0.64213169    -0.53500
C486        C  0.14158958  0.33730312  0.63039550     0.10600
H487        H  0.19619903  0.35259313  0.64666354     0.15100
H488        H  0.13419528  0.37051739  0.62692505     0.00900
H489        H  0.14933607  0.34698347  0.68831713     0.15400
H490        H  0.15356845  0.30750402  0.63898435     0.15200
C491        C  0.17127298  0.65377533  0.33517130     0.87000
C492        C  0.15415306  0.64028095  0.32468260    -0.53200
C493        C  0.14175493  0.62986287  0.33850067     0.09900
C494        C  0.14790953  0.63371999  0.36125446     0.20900
C495        C  0.15941382  0.66803062  0.35039624    -0.54000
C496        C  0.14738107  0.65741192  0.36424274     0.10000
C497        C  0.18326259  0.63836889  0.34923962    -0.53500
C498        C  0.17091460  0.62776940  0.36263055     0.10600
H499        H  0.15199725  0.63927066  0.30799339     0.15100
H500        H  0.13813310  0.62517303  0.37252081     0.00900
H501        H  0.16081560  0.68487664  0.35049370     0.15400
H502        H  0.19981234  0.63520024  0.34821787     0.15200
C503        C  0.17433480  0.65741204  0.64737144     0.87000
C504        C  0.18492665  0.64617051  0.62880104    -0.53200
C505        C  0.17151730  0.63394836  0.61737579     0.09900
C506        C  0.14927710  0.63380283  0.62584085     0.20900
C507        C  0.15561391  0.66914014  0.63746850    -0.54000
C508        C  0.14239585  0.65652593  0.62645425     0.10000
C509        C  0.16406047  0.63968905  0.65997391    -0.53500
C510        C  0.15120159  0.62720177  0.64846206     0.10600
H511        H  0.20128830  0.64796592  0.62498188     0.15100
H512        H  0.13850549  0.62369907  0.61688930     0.00900
H513        H  0.15246721  0.68556889  0.63936846     0.15400
H514        H  0.16702372  0.63704272  0.67635185     0.15200
C515        C  0.16534700  0.32545052  0.33498361     0.87000
C516        C  0.14839378  0.31498941  0.34860540    -0.53200
C517        C  0.13796494  0.32875075  0.36099406     0.09900
C518        C  0.14575658  0.35116130  0.35899743     0.20900
C519        C  0.15357900  0.34284489  0.32320028    -0.54000
C520        C  0.14355974  0.35652123  0.33599315     0.10000
C521        C  0.17964997  0.33709062  0.35058660    -0.53500
C522        C  0.16915273  0.35034999  0.36335795     0.10600
H523        H  0.14441222  0.29858440  0.34798813     0.15100
H524        H  0.13755443  0.36219768  0.36929996     0.00900
H525        H  0.15368539  0.34445173  0.30643685     0.15400
H526        H  0.19635385  0.33464452  0.35172255     0.15200
O527        O  0.17360458  0.47387644  0.51726657    -0.72400
O528        O  0.17567189  0.50816211  0.46643824    -0.73400
O529        O  0.17354718  0.46519974  0.47447589    -0.62000
O530        O  0.17638024  0.51685836  0.50936111    -0.70400
O531        O  0.21074842  0.51387161  0.51162029    -0.70000
O532        O  0.20805345  0.46460717  0.47235875    -0.61200
O533        O  0.21023559  0.50904168  0.46733667    -0.73800
O534        O  0.20787534  0.46947714  0.51679265    -0.72500
Cu535      Cu  0.17369887  0.49108643  0.49185562     1.04600
Cu536      Cu  0.21055454  0.48916704  0.49202059     1.04300
C537        C  0.19005057  0.46592264  0.52498678     0.93800
C538        C  0.19291957  0.51447842  0.45902133     0.92900
C539        C  0.19025241  0.45689792  0.46767059     0.85100
C540        C  0.19391830  0.52334008  0.51635596     0.91300
C541        C  0.25494509  0.24448302  0.23908248    -0.02000
C542        C  0.75481941  0.24191240  0.24502735    -0.02000
C543        C  0.25481123  0.74004560  0.23875777    -0.02000
C544        C  0.25764763  0.23978316  0.74072945    -0.02000
C545        C  0.75426196  0.24823475  0.74265293    -0.02000
C546        C  0.75679655  0.74077253  0.24611864    -0.02000
C547        C  0.25593854  0.74750131  0.74519002    -0.02000
C548        C  0.15926567  0.16414364  0.14767003     0.87000
C549        C  0.14243169  0.17522123  0.13460617    -0.53200
C550        C  0.13209559  0.16227628  0.12138165     0.09900
C551        C  0.13967483  0.13979761  0.12187974     0.20900
C552        C  0.14747979  0.14595998  0.15826796    -0.54000
C553        C  0.13737624  0.13300443  0.14452523     0.10000
C554        C  0.17360296  0.15348979  0.13159933    -0.53500
C555        C  0.16313705  0.14090826  0.11794802     0.10600
H556        H  0.13822387  0.19148198  0.13622541     0.15100
H557        H  0.13129588  0.12973172  0.11059426     0.00900
H558        H  0.14743467  0.14349610  0.17491865     0.15400
H559        H  0.19029036  0.15617798  0.13074107     0.15200
C560        C  0.16811318  0.15439795  0.83306660     0.87000
C561        C  0.15023851  0.14077445  0.82406474    -0.53200
C562        C  0.13897963  0.13052540  0.83882658     0.09900
C563        C  0.14682113  0.13460566  0.86096816     0.20900
C564        C  0.15725546  0.16879288  0.84889967    -0.54000
C565        C  0.14620586  0.15834509  0.86364445     0.10000
C566        C  0.18125365  0.13926318  0.84623048    -0.53500
C567        C  0.16994548  0.12864499  0.86063120     0.10600
H568        H  0.14653466  0.13956452  0.80767738     0.15100
H569        H  0.13784405  0.12617544  0.87290842     0.00900
H570        H  0.15805562  0.18566180  0.84830353     0.15400
H571        H  0.19773935  0.13652033  0.84367931     0.15200
C572        C  0.84857656  0.16099600  0.15237514     0.87000
C573        C  0.83630256  0.14713054  0.13682858    -0.53200
C574        C  0.84863335  0.13406315  0.12539861     0.09900
C575        C  0.87181616  0.13580108  0.13105553     0.20900
C576        C  0.86122615  0.14559273  0.16578825    -0.54000
C577        C  0.87313145  0.13218583  0.15448457     0.10000
C578        C  0.86509929  0.17211559  0.13881595    -0.53500
C579        C  0.87734361  0.15875577  0.12772535     0.10600
H580        H  0.81953140  0.14803170  0.13475123     0.15100
H581        H  0.88193091  0.12500966  0.12237183     0.00900
H582        H  0.86032451  0.14497712  0.18259735     0.15400
H583        H  0.86704562  0.18885872  0.13799895     0.15200
C584        C  0.17136758  0.83839692  0.15499182     0.87000
C585        C  0.15634536  0.85112830  0.16873844    -0.53200
C586        C  0.14431664  0.86473748  0.15783837     0.09900
C587        C  0.14874577  0.86474513  0.13448705     0.20900
C588        C  0.15709155  0.82816973  0.13833470    -0.54000
C589        C  0.14521808  0.84211036  0.12748416     0.10000
C590        C  0.18411017  0.85467305  0.14297891    -0.53500
C591        C  0.17222758  0.86863558  0.13243046     0.10600
H592        H  0.15480056  0.84892778  0.18535997     0.15100
H593        H  0.13930759  0.87630009  0.12605771     0.00900
H594        H  0.15619905  0.81160275  0.13535615     0.15400
H595        H  0.20102834  0.85525407  0.14309674     0.15200
C596        C  0.84070559  0.83629864  0.15823699     0.87000
C597        C  0.82779185  0.85210924  0.14537771    -0.53200
C598        C  0.83956688  0.86369505  0.13195854     0.09900
C599        C  0.86268756  0.85779210  0.13221031     0.20900
C600        C  0.85234163  0.82294519  0.14197094    -0.54000
C601        C  0.86363438  0.83438447  0.12821456     0.10000
C602        C  0.85818424  0.84965327  0.16854921    -0.53500
C603        C  0.86985569  0.86064535  0.15469106     0.10600
H604        H  0.81115364  0.85437604  0.14730507     0.15100
H605        H  0.87217534  0.86662081  0.12100050     0.00900
H606        H  0.85180104  0.80605907  0.14150782     0.15400
H607        H  0.86166718  0.84981801  0.18502687     0.15200
O608        O  0.98404319  0.97169794  0.16084104    -0.72400
O609        O  0.02715666  0.01682298  0.15785115    -0.73400
O610        O  0.02748380  0.97304541  0.15997070    -0.62000
O611        O  0.98265710  0.01535981  0.15842497    -0.70400
O612        O  0.98329888  0.01825479  0.19275498    -0.70000
O613        O  0.02891323  0.97423777  0.19436891    -0.61200
O614        O  0.02802423  0.01892061  0.19221827    -0.73800
O615        O  0.98405385  0.97371406  0.19522309    -0.72500
Cu616      Cu  0.00534612  0.99427860  0.15816086     1.04600
Cu617      Cu  0.00613012  0.99641633  0.19492453     1.04300
C618        C  0.97732366  0.96545322  0.17837989     0.93800
C619        C  0.03465737  0.02479362  0.17450313     0.92900
C620        C  0.03493551  0.96646194  0.17707987     0.85100
C621        C  0.97550973  0.02321928  0.17513679     0.91300
C622        C  0.16831136  0.83490754  0.83992428     0.87000
C623        C  0.18097386  0.84784454  0.85608583    -0.53200
C624        C  0.16878942  0.85932695  0.86925311     0.09900
C625        C  0.14541793  0.85715482  0.86469359     0.20900
C626        C  0.15291463  0.82206088  0.85316859    -0.54000
C627        C  0.14075508  0.83387833  0.86587273     0.10000
C628        C  0.15452945  0.85118817  0.82874779    -0.53500
C629        C  0.14244140  0.86295057  0.84175776     0.10600
H630        H  0.19780017  0.84770376  0.85746009     0.15100
H631        H  0.13582506  0.86617248  0.87553184     0.00900
H632        H  0.15130619  0.80526759  0.85204703     0.15400
H633        H  0.15421633  0.85291865  0.81200256     0.15200
O634        O  0.21422550  0.98026481  0.02231397    -0.72400
O635        O  0.21287751  0.01736502  0.97113185    -0.73400
O636        O  0.21707290  0.02439649  0.01518181    -0.62000
O637        O  0.21038387  0.97340742  0.97831644    -0.70400
O638        O  0.17620090  0.97453314  0.98321241    -0.70000
O639        O  0.18266154  0.02775888  0.01486335    -0.61200
O640        O  0.17834786  0.01681846  0.97282023    -0.73800
O641        O  0.18020469  0.98540321  0.02544588    -0.72500
Cu642      Cu  0.21498581  0.99876808  0.99666028     1.04600
Cu643      Cu  0.17827385  0.00121681  0.99920481     1.04300
C644        C  0.19710088  0.97736445  0.03203709     0.93800
C645        C  0.19502845  0.02238413  0.96372956     0.92900
C646        C  0.20065226  0.03435020  0.02036861     0.85100
C647        C  0.19214939  0.96587047  0.97519124     0.91300
C648        C  0.83956234  0.15208491  0.82866737     0.87000
C649        C  0.82494558  0.13692852  0.84033257    -0.53200
C650        C  0.83528719  0.12347726  0.85314968     0.09900
C651        C  0.85894116  0.12669679  0.85337729     0.20900
C652        C  0.85227766  0.16307986  0.84599782    -0.54000
C653        C  0.86239079  0.14963443  0.85902945     0.10000
C654        C  0.85572671  0.13786848  0.81772666    -0.53500
C655        C  0.86607559  0.12491050  0.83087836     0.10600
H656        H  0.80812828  0.13673516  0.83842118     0.15100
H657        H  0.86711178  0.11562885  0.86369816     0.00900
H658        H  0.85330672  0.17987492  0.84756984     0.15400
H659        H  0.85991321  0.13897640  0.80148822     0.15200
O660        O  0.02309098  0.20752583  0.00746816    -0.72400
O661        O  0.98069937  0.20301024  0.96125723    -0.73400
O662        O  0.97845172  0.20664074  0.00575513    -0.62000
O663        O  0.02569072  0.20336464  0.96337500    -0.70400
O664        O  0.02569291  0.16909092  0.96746998    -0.70000
O665        O  0.97929130  0.17218468  0.00761160    -0.61200
O666        O  0.98149671  0.16862420  0.96433803    -0.73800
O667        O  0.02231162  0.17310660  0.01047120    -0.72500
Cu668      Cu  0.00193400  0.20645539  0.98422016     1.04600
Cu669      Cu  0.00217970  0.16966711  0.98739427     1.04300
C670        C  0.02895442  0.19086153  0.01648946     0.93800
C671        C  0.97410697  0.18498238  0.95591520     0.92900
C672        C  0.97204406  0.18957179  0.01378750     0.85100
C673        C  0.03361069  0.18545782  0.95961440     0.91300
C674        C  0.84289199  0.83219506  0.83443190     0.87000
C675        C  0.86027095  0.82163215  0.84740652    -0.53200
C676        C  0.87271180  0.83535423  0.85801207     0.09900
C677        C  0.86636670  0.85810355  0.85502842     0.20900
C678        C  0.83085443  0.84568119  0.85056338    -0.54000
C679        C  0.84346375  0.85906420  0.86157695     0.10000
C680        C  0.85449610  0.84815344  0.82070602    -0.53500
C681        C  0.86660366  0.86187503  0.83160818     0.10600
H682        H  0.86269452  0.80492256  0.84781735     0.15100
H683        H  0.87647973  0.86913852  0.86365008     0.00900
H684        H  0.81439894  0.84405207  0.85390151     0.15400
H685        H  0.85304220  0.84864029  0.80392033     0.15200
O686        O  0.02665328  0.80082975  0.97706198    -0.72400
O687        O  0.98156623  0.80138059  0.02132226    -0.73400
O688        O  0.98193288  0.79730144  0.97681804    -0.62000
O689        O  0.02639973  0.80476348  0.02143357    -0.70400
O690        O  0.02323415  0.83897660  0.01826196    -0.70000
O691        O  0.98047963  0.83165655  0.97378836    -0.61200
O692        O  0.97900298  0.83555181  0.01718393    -0.73800
O693        O  0.02363702  0.83514569  0.97469209    -0.72500
Cu694      Cu  0.00424370  0.79976909  0.99937125     1.04600
Cu695      Cu  0.00152091  0.83642375  0.99603482     1.04300
C696        C  0.03178965  0.81811253  0.96865462     0.93800
C697        C  0.97280626  0.81873680  0.02563287     0.92900
C698        C  0.97466648  0.81354718  0.96794256     0.85100
C699        C  0.03201724  0.82322197  0.02651806     0.91300
O700        O  0.79965166  0.01681367  0.97106262    -0.72400
O701        O  0.80290073  0.97584798  0.01922476    -0.73400
O702        O  0.80467977  0.02062489  0.01553244    -0.62000
O703        O  0.79814644  0.97210440  0.97467843    -0.70400
O704        O  0.83261095  0.96999566  0.97366143    -0.70000
O705        O  0.83877929  0.01961456  0.01020964    -0.61200
O706        O  0.83735427  0.97637172  0.01669335    -0.73800
O707        O  0.83376006  0.01312756  0.96705163    -0.72500
Cu708      Cu  0.80001497  0.99642052  0.99528638     1.04600
Cu709      Cu  0.83669066  0.99476023  0.99180628     1.04300
C710        C  0.81641116  0.02081030  0.96111958     0.93800
C711        C  0.82085672  0.96997861  0.02566371     0.92900
C712        C  0.82302686  0.02780627  0.01901119     0.85100
C713        C  0.81472703  0.96331739  0.96797866     0.91300
O714        O  0.97909786  0.97622668  0.82765762    -0.72400
O715        O  0.02534831  0.01769870  0.82820834    -0.73400
O716        O  0.98217555  0.01967890  0.82436383    -0.62000
O717        O  0.02314940  0.97394424  0.83149209    -0.70400
O718        O  0.02696134  0.97077383  0.79744527    -0.70000
O719        O  0.98339540  0.01622519  0.79011394    -0.61200
O720        O  0.02804472  0.01547279  0.79396797    -0.73800
O721        O  0.98187543  0.97160270  0.79366103    -0.72500
Cu722      Cu  0.00238350  0.99685414  0.82900272     1.04600
Cu723      Cu  0.00520180  0.99332697  0.79249073     1.04300
C724        C  0.97276922  0.96766807  0.81085804     0.93800
C725        C  0.03359763  0.02370384  0.81128033     0.92900
C726        C  0.97634724  0.02535332  0.80631505     0.85100
C727        C  0.03194676  0.96539780  0.81591823     0.91300
C728        C  0.75503077  0.74101980  0.74338956    -0.02000
C729        C  0.80914899  0.92077571  0.92555382     0.16500
C730        C  0.80415192  0.90847987  0.90796014    -0.32600
C731        C  0.81946156  0.89453857  0.90055783     0.20900
C732        C  0.83851158  0.89280221  0.91063611     0.03100
C733        C  0.84334976  0.90478986  0.92809649    -0.22300
C734        C  0.82842695  0.91887087  0.93511031     0.12200
S735        S  0.79383291  0.93986491  0.93644005    -0.06000
C736        C  0.81402491  0.94540220  0.95348686    -0.09400
C737        C  0.83125212  0.93275633  0.95095147    -0.26000
S738        S  0.85558528  0.87629801  0.89928657    -0.03200
C739        C  0.83742312  0.87169688  0.88002966    -0.16700
C740        C  0.81862410  0.88216632  0.88289203    -0.14700
H741        H  0.78933282  0.91017022  0.90005426     0.20700
H742        H  0.85848972  0.90367898  0.93552885     0.16700
H743        H  0.84555530  0.93411296  0.95987367     0.19200
H744        H  0.80558376  0.88157675  0.87218925     0.12600
C745        C  0.92087474  0.83189102  0.89316958     0.16500
C746        C  0.93819998  0.83721124  0.90522433    -0.32600
C747        C  0.94357960  0.82400797  0.92151148     0.20900
C748        C  0.93265970  0.80582507  0.92544562     0.03100
C749        C  0.91521133  0.80034596  0.91315433    -0.22300
C750        C  0.90942157  0.81400007  0.89702249     0.12200
S751        S  0.91117519  0.84721912  0.87409400    -0.06000
C752        C  0.89085342  0.82989010  0.87128670    -0.09400
C753        C  0.89209933  0.81263615  0.88425928    -0.26000
S754        S  0.94187732  0.79242719  0.94663439    -0.03200
C755        C  0.95999640  0.81205115  0.95031619    -0.16700
C756        C  0.95907038  0.82763946  0.93562436    -0.14700
H757        H  0.94672885  0.85150379  0.90246728     0.20700
H758        H  0.90621363  0.78646956  0.91641095     0.16700
H759        H  0.88041397  0.80049232  0.88514979     0.19200
H760        H  0.96907872  0.84125093  0.93548369     0.12600
C761        C  0.92351817  0.93609392  0.82278674     0.16500
C762        C  0.90629907  0.92737003  0.83270253    -0.32600
C763        C  0.89781296  0.90911754  0.82433548     0.20900
C764        C  0.90566263  0.90006067  0.80647135     0.03100
C765        C  0.92262938  0.90926757  0.79602866    -0.22300
C766        C  0.93155699  0.92742442  0.80478208     0.12200
S767        S  0.93719144  0.95671447  0.83233292    -0.06000
C768        C  0.95424411  0.95398074  0.81198229    -0.09400
C769        C  0.94917633  0.93793136  0.79823447    -0.26000
S770        S  0.89416439  0.87657663  0.80040582    -0.03200
C771        C  0.87919012  0.87899278  0.82252111    -0.16700
C772        C  0.88257313  0.89737813  0.83331803    -0.14700
H773        H  0.90040662  0.93397192  0.84701244     0.20700
H774        H  0.92918013  0.90207755  0.78230639     0.16700
H775        H  0.95831890  0.93366259  0.78479574     0.19200
H776        H  0.87499406  0.90153759  0.84773188     0.12600
C777        C  0.81906484  0.79078666  0.79632609     0.16500
C778        C  0.81587851  0.77576050  0.78069106    -0.32600
C779        C  0.79524836  0.77029331  0.77555204     0.20900
C780        C  0.77854501  0.77924830  0.78568862     0.03100
C781        C  0.78173214  0.79407902  0.80156572    -0.22300
C782        C  0.80239070  0.79971318  0.80658312     0.12200
S783        S  0.84281534  0.80023678  0.80397718    -0.06000
C784        C  0.83039507  0.81658644  0.82134712    -0.09400
C785        C  0.80873691  0.81440887  0.82101843    -0.26000
S786        S  0.75479369  0.77084234  0.77677791    -0.03200
C787        C  0.76731375  0.75518137  0.75869162    -0.16700
C788        C  0.78902598  0.75639842  0.76038407    -0.14700
H789        H  0.82894448  0.76888692  0.77260374     0.20700
H790        H  0.76865482  0.80116845  0.80943550     0.16700
H791        H  0.79801813  0.82336378  0.83034125     0.19200
H792        H  0.79995327  0.74771703  0.75103825     0.12600
C793        C  0.93051546  0.18544207  0.91480114     0.16500
C794        C  0.91620458  0.18974107  0.89879540    -0.32600
C795        C  0.90187632  0.17400560  0.89334192     0.20900
C796        C  0.90169211  0.15511900  0.90366077     0.03100
C797        C  0.91590203  0.15083962  0.91949294    -0.22300
C798        C  0.93036300  0.16628543  0.92461569     0.12200
S799        S  0.94938378  0.20210064  0.92389653    -0.06000
C800        C  0.95723105  0.18269995  0.94060890    -0.09400
C801        C  0.94565351  0.16458200  0.93922802    -0.26000
S802        S  0.88390414  0.13774025  0.89467727    -0.03200
C803        C  0.87675954  0.15564405  0.87614071    -0.16700
C804        C  0.88743385  0.17447031  0.87749209    -0.14700
H805        H  0.91643030  0.20451621  0.89077338     0.20700
H806        H  0.91593277  0.13590595  0.92725140     0.16700
H807        H  0.94811687  0.15088539  0.94867868     0.19200
H808        H  0.88551959  0.18734936  0.86688537     0.12600
C809        C  0.81055632  0.08743659  0.89410876     0.16500
C810        C  0.80104448  0.07917615  0.91201409    -0.32600
C811        C  0.80913105  0.06046579  0.92015725     0.20900
C812        C  0.82562215  0.05042342  0.91056291     0.03100
C813        C  0.83462290  0.05830494  0.89253420    -0.22300
C814        C  0.82691882  0.07704193  0.88473648     0.12200
S815        S  0.80526524  0.11119509  0.88305049    -0.06000
C816        C  0.82562184  0.10700036  0.86606945    -0.09400
C817        C  0.83535989  0.08798105  0.86868256    -0.26000
S818        S  0.83479708  0.02926243  0.92338905    -0.03200
C819        C  0.81636682  0.03365292  0.94217217    -0.16700
C820        C  0.80345456  0.05062242  0.93833448    -0.14700
H821        H  0.78858356  0.08742167  0.91976100     0.20700
H822        H  0.84783049  0.05063885  0.88542319     0.16700
H823        H  0.84887714  0.08290444  0.86001754     0.19200
H824        H  0.79140200  0.05604298  0.94873227     0.12600
C825        C  0.93272587  0.06571591  0.79906338     0.16500
C826        C  0.91427540  0.07641136  0.79396203    -0.32600
C827        C  0.90676464  0.09111808  0.80836710     0.20900
C828        C  0.91757572  0.09532757  0.82660767     0.03100
C829        C  0.93612586  0.08511493  0.83140200    -0.22300
C830        C  0.94316680  0.07003452  0.81746772     0.12200
S831        S  0.94338893  0.04555995  0.78515401    -0.06000
C832        C  0.96148939  0.04270826  0.80481846    -0.09400
C833        C  0.95959451  0.05703417  0.82077238    -0.26000
S834        S  0.90548844  0.11205894  0.84301074    -0.03200
C835        C  0.88520104  0.11329244  0.82551365    -0.16700
C836        C  0.88813332  0.10173493  0.80748583    -0.14700
H837        H  0.90566471  0.07273314  0.77992559     0.20700
H838        H  0.94417408  0.08803462  0.84594823     0.16700
H839        H  0.96927477  0.05736699  0.83459667     0.19200
H840        H  0.87682451  0.10031310  0.79503812     0.12600
C841        C  0.19292633  0.89846337  0.90855021     0.16500
C842        C  0.20438158  0.91426087  0.91865744    -0.32600
C843        C  0.19516132  0.92415635  0.93585500     0.20900
C844        C  0.17552752  0.91842447  0.94273065     0.03100
C845        C  0.16436892  0.90237394  0.93298887    -0.22300
C846        C  0.17346330  0.89269523  0.91574861     0.12200
S847        S  0.20025488  0.88565351  0.88631174    -0.06000
C848        C  0.17661571  0.87273512  0.88657742    -0.09400
C849        C  0.16428841  0.87780415  0.90354093    -0.26000
S850        S  0.16623735  0.93318921  0.96268037    -0.03200
C851        C  0.18908259  0.94728825  0.96200661    -0.16700
C852        C  0.20316485  0.94062735  0.94707986    -0.14700
H853        H  0.21949442  0.91906538  0.91299121     0.20700
H854        H  0.14892333  0.89808711  0.93818855     0.16700
H855        H  0.14904652  0.87136210  0.90670846     0.19200
H856        H  0.21804062  0.94797352  0.94405118     0.12600
C857        C  0.07290223  0.92698636  0.83584411     0.16500
C858        C  0.08597855  0.91510251  0.84839569    -0.32600
C859        C  0.10087982  0.90267313  0.83867001     0.20900
C860        C  0.10285077  0.90190896  0.81733074     0.03100
C861        C  0.08973548  0.91404778  0.80458429    -0.22300
C862        C  0.07465566  0.92663592  0.81440726     0.12200
S863        S  0.05403203  0.94289987  0.84519590    -0.06000
C864        C  0.04813762  0.94959700  0.82003007    -0.09400
C865        C  0.06034802  0.93971335  0.80512947    -0.26000
S866        S  0.12186909  0.88501520  0.80910145    -0.03200
C867        C  0.12701077  0.87897071  0.83480835    -0.16700
C868        C  0.11457453  0.88994939  0.84863746    -0.14700
H869        H  0.08453372  0.91546206  0.86513253     0.20700
H870        H  0.09113965  0.91362416  0.78785390     0.16700
H871        H  0.05899999  0.94213399  0.78856270     0.19200
H872        H  0.11490263  0.88886517  0.86531779     0.12600
C873        C  0.10227718  0.81198699  0.90599278     0.16500
C874        C  0.09263180  0.80247379  0.92311751    -0.32600
C875        C  0.07414112  0.81149131  0.93066372     0.20900
C876        C  0.06568274  0.82900736  0.92137349     0.03100
C877        C  0.07498684  0.83813732  0.90412124    -0.22300
C878        C  0.09345114  0.82935130  0.89682672     0.12200
S879        S  0.12580811  0.80500938  0.89547410    -0.06000
C880        C  0.12363882  0.82598750  0.87898602    -0.09400
C881        C  0.10543372  0.83722732  0.88130542    -0.26000
S882        S  0.04427183  0.83874030  0.93332674    -0.03200
C883        C  0.04639980  0.81902955  0.95117259    -0.16700
C884        C  0.06286256  0.80544210  0.94778202    -0.14700
H885        H  0.09956062  0.78911743  0.93061238     0.20700
H886        H  0.06850023  0.85199268  0.89712472     0.16700
H887        H  0.10153329  0.85108536  0.87263011     0.19200
H888        H  0.06676125  0.79242142  0.95765547     0.12600
C889        C  0.91917072  0.89423596  0.15718056     0.16500
C890        C  0.93637992  0.90620331  0.15153367    -0.32600
C891        C  0.94337709  0.92130587  0.16555027     0.20900
C892        C  0.93412183  0.92407753  0.18475371     0.03100
C893        C  0.91679772  0.91189815  0.19052417    -0.22300
C894        C  0.90935392  0.89704991  0.17611053     0.12200
S895        S  0.90765203  0.87659279  0.14122900    -0.06000
C896        C  0.88863828  0.87323205  0.15968469    -0.09400
C897        C  0.89176288  0.88476324  0.17776852    -0.26000
S898        S  0.94516700  0.94374186  0.19921235    -0.03200
C899        C  0.96186358  0.94843480  0.17879039    -0.16700
C900        C  0.95909425  0.93518870  0.16203165    -0.14700
H901        H  0.94361320  0.90427989  0.13648162     0.20700
H902        H  0.90911808  0.91431168  0.20527077     0.16700
H903        H  0.88119050  0.88503851  0.19081631     0.19200
H904        H  0.96802906  0.93582108  0.14781430     0.12600
C905        C  0.83611166  0.93565950  0.07181682     0.16500
C906        C  0.84703719  0.92533126  0.08744446    -0.32600
C907        C  0.83672223  0.90945553  0.09806464     0.20900
C908        C  0.81632021  0.90396820  0.09357195     0.03100
C909        C  0.80505887  0.91480234  0.07817544    -0.22300
C910        C  0.81550597  0.93077517  0.06734365     0.12200
S911        S  0.84677158  0.95420636  0.05635583    -0.06000
C912        C  0.82320868  0.95594318  0.04363413    -0.09400
C913        C  0.80786019  0.94265192  0.05120688    -0.26000
S914        S  0.80769137  0.88273508  0.10736833    -0.03200
C915        C  0.83205947  0.88124226  0.11884332    -0.16700
C916        C  0.84551315  0.89698394  0.11272676    -0.14700
H917        H  0.86318598  0.92907293  0.09075198     0.20700
H918        H  0.78913751  0.91058621  0.07439564     0.16700
H919        H  0.79225448  0.94131722  0.04486926     0.19200
H920        H  0.86135265  0.89901701  0.11821446     0.12600
C921        C  0.90637287  0.81267234  0.09268057     0.16500
C922        C  0.92466199  0.80378621  0.08454658    -0.32600
C923        C  0.93292007  0.81251088  0.06630806     0.20900
C924        C  0.92329372  0.82924640  0.05672260     0.03100
C925        C  0.90491276  0.83774589  0.06454037    -0.22300
C926        C  0.89679067  0.82914797  0.08267681     0.12200
S927        S  0.89481088  0.80605850  0.11570961    -0.06000
C928        C  0.87718616  0.82590410  0.11171970    -0.09400
C929        C  0.87998924  0.83652360  0.09329104    -0.26000
S930        S  0.93609156  0.83871604  0.03573929    -0.03200
C931        C  0.95467917  0.81985125  0.03950927    -0.16700
C932        C  0.95095621  0.80679389  0.05624082    -0.14700
H933        H  0.93242162  0.79109546  0.09239047     0.20700
H934        H  0.89759265  0.85096701  0.05714497     0.16700
H935        H  0.87090332  0.84984764  0.08844948     0.19200
H936        H  0.96112521  0.79428455  0.06107162     0.12600
C937        C  0.18322848  0.94526792  0.07963898     0.16500
C938        C  0.17209051  0.93554236  0.09543633    -0.32600
C939        C  0.17972855  0.91668332  0.10294473     0.20900
C940        C  0.19801114  0.90801718  0.09553537     0.03100
C941        C  0.20948842  0.91802995  0.07989896    -0.22300
C942        C  0.20151139  0.93678439  0.07194669     0.12200
S943        S  0.17481498  0.96682859  0.06703934    -0.06000
C944        C  0.19592145  0.96450437  0.05083199    -0.09400
C945        C  0.20910187  0.94800753  0.05542790    -0.26000
S946        S  0.20365469  0.88421571  0.10602094    -0.03200
C947        C  0.18079781  0.88591121  0.11996164    -0.16700
C948        C  0.16994083  0.90423494  0.11698154    -0.14700
H949        H  0.15753121  0.94194346  0.10099092     0.20700
H950        H  0.22349561  0.91109869  0.07363912     0.16700
H951        H  0.22261735  0.94369099  0.04639139     0.19200
H952        H  0.15529655  0.90813206  0.12430292     0.12600
C953        C  0.10477017  0.90249503  0.18241986     0.16500
C954        C  0.09458596  0.91878526  0.19304321    -0.32600
C955        C  0.07671646  0.92745494  0.18360527     0.20900
C956        C  0.06940252  0.91991591  0.16471381     0.03100
C957        C  0.07907667  0.90342912  0.15459374    -0.22300
C958        C  0.09688066  0.89511321  0.16373499     0.12200
S959        S  0.12804347  0.89120402  0.18937343    -0.06000
C960        C  0.12696868  0.87706584  0.16651519    -0.09400
C961        C  0.10919771  0.88041953  0.15487192    -0.26000
S962        S  0.04892712  0.93299694  0.15456094    -0.03200
C963        C  0.04967634  0.94901119  0.17595878    -0.16700
C964        C  0.06510693  0.94420602  0.19040880    -0.14700
H965        H  0.10074002  0.92493587  0.20748820     0.20700
H966        H  0.07345944  0.89788904  0.13968401     0.16700
H967        H  0.10586694  0.87318594  0.14000864     0.19200
H968        H  0.06809197  0.95286054  0.20456514     0.12600
C969        C  0.07682264  0.84100650  0.06196742     0.16500
C970        C  0.09204307  0.85252024  0.07253268    -0.32600
C971        C  0.10506162  0.84189257  0.08632428     0.20900
C972        C  0.10319262  0.82068648  0.08951698     0.03100
C973        C  0.08811590  0.80898996  0.07859534    -0.22300
C974        C  0.07493551  0.81969736  0.06476151     0.12200
S975        S  0.05926220  0.85143156  0.04513386    -0.06000
C976        C  0.04916172  0.82684017  0.04144753    -0.09400
C977        C  0.05907185  0.81139064  0.05284784    -0.26000
S978        S  0.12007945  0.81122806  0.10786373    -0.03200
C979        C  0.12958298  0.83623189  0.11129844    -0.16700
C980        C  0.12021143  0.85075638  0.09840484    -0.14700
H981        H  0.09346918  0.86916838  0.07033681     0.20700
H982        H  0.08652635  0.79239419  0.08099384     0.16700
H983        H  0.05490589  0.79505391  0.05244462     0.19200
H984        H  0.12391318  0.86714997  0.09777535     0.12600
C985        C  0.92185991  0.16446580  0.08871352     0.16500
C986        C  0.93817622  0.16017711  0.07517693    -0.32600
C987        C  0.94222113  0.17452593  0.05950990     0.20900
C988        C  0.93091649  0.19274174  0.05744564     0.03100
C989        C  0.91438746  0.19710500  0.07115826    -0.22300
C990        C  0.91003651  0.18238994  0.08678926     0.12200
S991        S  0.91406246  0.14800205  0.10767164    -0.06000
C992        C  0.89406323  0.16492535  0.11311652    -0.09400
C993        C  0.89400245  0.18284139  0.10099629    -0.26000
S994        S  0.93892368  0.20794721  0.03700001    -0.03200
C995        C  0.95716836  0.18908460  0.03119265    -0.16700
C996        C  0.95702078  0.17233572  0.04460926    -0.14700
H997        H  0.94709907  0.14594879  0.07652309     0.20700
H998        H  0.90514701  0.21107775  0.06950267     0.16700
H999        H  0.88230159  0.19492038  0.10178353     0.19200
H1000       H  0.96737891  0.15907942  0.04355454     0.12600
C1001       C  0.92773493  0.05641790  0.16257148     0.16500
C1002       C  0.91063041  0.06563471  0.15282398    -0.32600
C1003       C  0.90320388  0.08433227  0.16108320     0.20900
C1004       C  0.91203450  0.09340560  0.17858509     0.03100
C1005       C  0.92888895  0.08378739  0.18879496    -0.22300
C1006       C  0.93663094  0.06513083  0.18025536     0.12200
S1007       S  0.94016753  0.03497030  0.15334985    -0.06000
C1008       C  0.95764431  0.03745582  0.17353671    -0.09400
C1009       C  0.95375285  0.05402767  0.18687826    -0.26000
S1010       S  0.90167408  0.11727060  0.18471221    -0.03200
C1011       C  0.88576040  0.11497141  0.16314282    -0.16700
C1012       C  0.88804967  0.09640592  0.15242297    -0.14700
H1013       H  0.90396097  0.05898335  0.13881467     0.20700
H1014       H  0.93615588  0.09093127  0.20224600     0.16700
H1015       H  0.96338288  0.05819205  0.20009759     0.19200
H1016       H  0.87968583  0.09230492  0.13834408     0.12600
C1017       C  0.84201261  0.07236345  0.05411396     0.16500
C1018       C  0.85421240  0.08683781  0.06492495    -0.32600
C1019       C  0.84469900  0.09827204  0.08074370     0.20900
C1020       C  0.82386449  0.09571604  0.08560392     0.03100
C1021       C  0.81142599  0.08141347  0.07441564    -0.22300
C1022       C  0.82105871  0.06969127  0.05859996     0.12200
S1023       S  0.85134535  0.05623171  0.03539148    -0.06000
C1024       C  0.82679297  0.04552352  0.03324810    -0.09400
C1025       C  0.81211566  0.05429630  0.04647459    -0.26000
S1026       S  0.81595589  0.11060804  0.10631532    -0.03200
C1027       C  0.84115522  0.11998168  0.10850265    -0.16700
C1028       C  0.85449874  0.11225303  0.09344560    -0.14700
H1029       H  0.87062272  0.08872443  0.06150639     0.20700
H1030       H  0.79515216  0.07916697  0.07818598     0.16700
H1031       H  0.79601870  0.04933923  0.04753461     0.19200
H1032       H  0.87073369  0.11639750  0.09170472     0.12600
C1033       C  0.19577027  0.08843091  0.89681252     0.16500
C1034       C  0.20794650  0.07777166  0.91154381    -0.32600
C1035       C  0.19891602  0.06044706  0.92139388     0.20900
C1036       C  0.17891590  0.05384846  0.91631898     0.03100
C1037       C  0.16705948  0.06410406  0.90133831    -0.22300
C1038       C  0.17580061  0.08163247  0.89202397     0.12200
S1039       S  0.20269187  0.11101564  0.88447244    -0.06000
C1040       C  0.17814910  0.11138992  0.87339708    -0.09400
C1041       C  0.16576683  0.09455535  0.87858487    -0.26000
S1042       S  0.16967914  0.03408548  0.93107781    -0.03200
C1043       C  0.19282691  0.03466336  0.94464895    -0.16700
C1044       C  0.20719160  0.04918207  0.93759310    -0.14700
H1045       H  0.22335915  0.08326558  0.91578990     0.20700
H1046       H  0.15125240  0.05922740  0.89782658     0.16700
H1047       H  0.14995212  0.09205786  0.87316474     0.19200
H1048       H  0.22220149  0.05222230  0.94474718     0.12600
C1049       C  0.10522693  0.18544533  0.89774129     0.16500
C1050       C  0.08763439  0.19635381  0.90491837    -0.32600
C1051       C  0.07731879  0.18852740  0.92250828     0.20900
C1052       C  0.08453129  0.17088508  0.93255979     0.03100
C1053       C  0.10239506  0.16050621  0.92586021    -0.22300
C1054       C  0.11236237  0.16802806  0.90816793     0.12200
S1055       S  0.11833330  0.19036013  0.87513721    -0.06000
C1056       C  0.13305328  0.16835925  0.87967630    -0.09400
C1057       C  0.12846593  0.15848683  0.89816596    -0.26000
S1058       S  0.06922429  0.16251367  0.95228800    -0.03200
C1059       C  0.05276000  0.18301690  0.94729733    -0.16700
C1060       C  0.05910486  0.19584524  0.93118513    -0.14700
H1061       H  0.08170884  0.20972801  0.89663122     0.20700
H1062       H  0.10771347  0.14650941  0.93353258     0.16700
H1063       H  0.13569592  0.14426168  0.90350932     0.19200
H1064       H  0.05052451  0.20923167  0.92568365     0.12600
C1065       C  0.09131323  0.09414430  0.83695874     0.16500
C1066       C  0.07451932  0.08131697  0.84215850    -0.32600
C1067       C  0.06744527  0.06710971  0.82717964     0.20900
C1068       C  0.07629186  0.06597100  0.80763081     0.03100
C1069       C  0.09304173  0.07905170  0.80232278    -0.22300
C1070       C  0.10046115  0.09303165  0.81754167     0.12200
S1071       S  0.10299016  0.11112788  0.85366416    -0.06000
C1072       C  0.12084527  0.11672324  0.83456240    -0.09400
C1073       C  0.11738089  0.10613786  0.81599001    -0.26000
S1074       S  0.06544732  0.04717919  0.79193296    -0.03200
C1075       C  0.04922325  0.04060889  0.81217317    -0.16700
C1076       C  0.05202372  0.05267555  0.82985860    -0.14700
H1077       H  0.06763031  0.08197229  0.85746353     0.20700
H1078       H  0.10029005  0.07801761  0.78721556     0.16700
H1079       H  0.12719339  0.10724616  0.80242078     0.19200
H1080       H  0.04327511  0.05089071  0.84408390     0.12600
C1081       C  0.20441865  0.07857225  0.06051397     0.16500
C1082       C  0.20679531  0.09017975  0.07898484    -0.32600
C1083       C  0.19218185  0.10603322  0.08297624     0.20900
C1084       C  0.17646979  0.11046332  0.06881910     0.03100
C1085       C  0.17442443  0.09927911  0.05031414    -0.22300
C1086       C  0.18841899  0.08307076  0.04672977     0.12200
S1087       S  0.21842113  0.05681812  0.05386223    -0.06000
C1088       C  0.20184646  0.05352387  0.03291671    -0.09400
C1089       C  0.18695685  0.06890550  0.03094839    -0.26000
S1090       S  0.15895204  0.12844962  0.07696026    -0.03200
C1091       C  0.17243278  0.12994417  0.10004311    -0.16700
C1092       C  0.19008713  0.11747423  0.10100649    -0.14700
H1093       H  0.21873100  0.08627416  0.09023646     0.20700
H1094       H  0.16163123  0.10227024  0.03971380     0.16700
H1095       H  0.17481155  0.06900395  0.01920663     0.19200
H1096       H  0.19985386  0.11573107  0.11463233     0.12600
C1097       C  0.07583182  0.06861856  0.17740439     0.16500
C1098       C  0.08834418  0.08596645  0.18249726    -0.32600
C1099       C  0.10215226  0.09339689  0.16728890     0.20900
C1100       C  0.10367416  0.08357423  0.14816329     0.03100
C1101       C  0.09135056  0.06626899  0.14315221    -0.22300
C1102       C  0.07723653  0.05924479  0.15804894     0.12200
S1103       S  0.05740202  0.05762835  0.19313049    -0.06000
C1104       C  0.05124741  0.04069180  0.17313718    -0.09400
C1105       C  0.06316967  0.04336350  0.15547908    -0.26000
S1106       S  0.12029389  0.09519297  0.13137284    -0.03200
C1107       C  0.12501765  0.11414700  0.14985297    -0.16700
C1108       C  0.11456351  0.11096012  0.16845186    -0.14700
H1109       H  0.08696898  0.09365096  0.19741561     0.20700
H1110       H  0.09228054  0.05896595  0.12799742     0.16700
H1111       H  0.06157481  0.03418723  0.14141293     0.19200
H1112       H  0.11512396  0.12144661  0.18163633     0.12600
C1113       C  0.07089227  0.19618709  0.05856295     0.16500
C1114       C  0.08892455  0.20052594  0.07024740    -0.32600
C1115       C  0.09469958  0.18605318  0.08551368     0.20900
C1116       C  0.08273452  0.16844206  0.08924783     0.03100
C1117       C  0.06458485  0.16443152  0.07801807    -0.22300
C1118       C  0.05921254  0.17844922  0.06246610     0.12200
S1119       S  0.06217151  0.21031107  0.03779432    -0.06000
C1120       C  0.04319048  0.19160120  0.03424297    -0.09400
C1121       C  0.04334617  0.17581375  0.04868181    -0.26000
S1122       S  0.09296024  0.15168791  0.10677280    -0.03200
C1123       C  0.11382957  0.16831146  0.10906414    -0.16700
C1124       C  0.11261997  0.18622062  0.09720442    -0.14700
H1125       H  0.09849727  0.21401048  0.06696421     0.20700
H1126       H  0.05558712  0.15038747  0.08058382     0.16700
H1127       H  0.03279548  0.16261120  0.04863382     0.19200
H1128       H  0.12468446  0.19799376  0.09630850     0.12600
C1129       C  0.19148442  0.79653803  0.79844724     0.16500
C1130       C  0.19455268  0.78153521  0.78271709    -0.32600
C1131       C  0.21519079  0.77663753  0.77712420     0.20900
C1132       C  0.23186807  0.78614691  0.78693933     0.03100
C1133       C  0.22884515  0.80103988  0.80269814    -0.22300
C1134       C  0.20827382  0.80602351  0.80821675     0.12200
S1135       S  0.16781001  0.80483179  0.80736157    -0.06000
C1136       C  0.18052146  0.82119786  0.82474282    -0.09400
C1137       C  0.20217875  0.82009617  0.82323993    -0.26000
S1138       S  0.25550139  0.77786043  0.77832547    -0.03200
C1139       C  0.24328451  0.76186402  0.76013048    -0.16700
C1140       C  0.22151023  0.76253807  0.76214605    -0.14700
H1141       H  0.18141851  0.77408062  0.77510895     0.20700
H1142       H  0.24199666  0.80842069  0.81034719     0.16700
H1143       H  0.21309820  0.82903333  0.83248367     0.19200
H1144       H  0.21058080  0.75293678  0.75364056     0.12600
C1145       C  0.78535801  0.77126265  0.20128116     0.16500
C1146       C  0.79149444  0.78035310  0.18242514    -0.32600
C1147       C  0.80561863  0.79713350  0.18328675     0.20900
C1148       C  0.81336165  0.80434399  0.20208561     0.03100
C1149       C  0.80723736  0.79524691  0.22088818    -0.22300
C1150       C  0.79306787  0.77857002  0.22003431     0.12200
S1151       S  0.76785508  0.75134315  0.20370565    -0.06000
C1152       C  0.77014757  0.75323945  0.23052256    -0.09400
C1153       C  0.78483199  0.76810587  0.23669492    -0.26000
S1154       S  0.83075178  0.82436029  0.19990998    -0.03200
C1155       C  0.82789632  0.82313100  0.17322686    -0.16700
C1156       C  0.81366114  0.80799901  0.16672319    -0.14700
H1157       H  0.78543067  0.77467065  0.16774343     0.20700
H1158       H  0.81322867  0.80097685  0.23557977     0.16700
H1159       H  0.78858375  0.77168387  0.25272195     0.19200
H1160       H  0.80991988  0.80469998  0.15063696     0.12600
C1161       C  0.78483608  0.21885650  0.78718366     0.16500
C1162       C  0.79128449  0.20954383  0.80588500    -0.32600
C1163       C  0.80627750  0.19362706  0.80480113     0.20900
C1164       C  0.81473316  0.18767250  0.78596237     0.03100
C1165       C  0.80848630  0.19715867  0.76735223    -0.22300
C1166       C  0.79319880  0.21271823  0.76838485     0.12200
S1167       S  0.76586457  0.23733444  0.78493877    -0.06000
C1168       C  0.76836383  0.23629409  0.75811283    -0.09400
C1169       C  0.78416528  0.22280708  0.75182929    -0.26000
S1170       S  0.83231323  0.16789252  0.78771214    -0.03200
C1171       C  0.82831696  0.16722462  0.81424126    -0.16700
C1172       C  0.81397067  0.18196917  0.82106285    -0.14700
H1173       H  0.78451796  0.21414005  0.82056791     0.20700
H1174       H  0.81490228  0.19223508  0.75261509     0.16700
H1175       H  0.78823945  0.21991847  0.73578289     0.19200
H1176       H  0.80937511  0.18396532  0.83709590     0.12600
C1177       C  0.22895875  0.21080718  0.78654941     0.16500
C1178       C  0.22226007  0.20316812  0.80576604    -0.32600
C1179       C  0.20598693  0.18854785  0.80572098     0.20900
C1180       C  0.19691674  0.18174077  0.78735611     0.03100
C1181       C  0.20380246  0.18924204  0.76812439    -0.22300
C1182       C  0.21995892  0.20403545  0.76820035     0.12200
S1183       S  0.24835357  0.22856999  0.78331982    -0.06000
C1184       C  0.24429547  0.22757557  0.75663090    -0.09400
C1185       C  0.22870577  0.21331349  0.75113601    -0.26000
S1186       S  0.17712128  0.16428099  0.79065762    -0.03200
C1187       C  0.18095040  0.16615332  0.81718065    -0.16700
C1188       C  0.19702054  0.17959913  0.82281876    -0.14700
H1189       H  0.22932729  0.20849982  0.82012656     0.20700
H1190       H  0.19673131  0.18394514  0.75375592     0.16700
H1191       H  0.22435898  0.20923553  0.73543778     0.19200
H1192       H  0.20171297  0.18280476  0.83867770     0.12600
C1193       C  0.22020236  0.76830804  0.19727791     0.16500
C1194       C  0.20567489  0.77342532  0.18178771    -0.32600
C1195       C  0.20079806  0.79455011  0.17918010     0.20900
C1196       C  0.21020477  0.80983744  0.19122880     0.03100
C1197       C  0.22501709  0.80474955  0.20636612    -0.22300
C1198       C  0.22964896  0.78365653  0.20917168     0.12200
S1199       S  0.22724484  0.74363626  0.20393454    -0.06000
C1200       C  0.24272204  0.75399987  0.22358544    -0.09400
C1201       C  0.24283418  0.77569569  0.22384358    -0.26000
S1202       S  0.20177663  0.83441344  0.18625916    -0.03200
C1203       C  0.18528475  0.82418040  0.16758282    -0.16700
C1204       C  0.18653139  0.80264113  0.16551634    -0.14700
H1205       H  0.19814914  0.76145501  0.17252978     0.20700
H1206       H  0.23225025  0.81668576  0.21589916     0.16700
H1207       H  0.25166952  0.78544972  0.23437725     0.19200
H1208       H  0.17757304  0.79318012  0.15482156     0.12600
C1209       C  0.78644610  0.19950711  0.21369383     0.16500
C1210       C  0.79427762  0.18129249  0.20446292    -0.32600
C1211       C  0.80988140  0.18342434  0.18936462     0.20900
C1212       C  0.81735685  0.20282657  0.18373796     0.03100
C1213       C  0.80948904  0.22103086  0.19294123    -0.22300
C1214       C  0.79389424  0.21888378  0.20803912     0.12200
S1215       S  0.76741707  0.20030211  0.23216411    -0.06000
C1216       C  0.76882999  0.22726644  0.23203167    -0.09400
C1217       C  0.78416868  0.23471267  0.21861484    -0.26000
S1218       S  0.83656516  0.20206563  0.16544563    -0.03200
C1219       C  0.83471680  0.17520225  0.16531604    -0.16700
C1220       C  0.81965421  0.16758653  0.17880188    -0.14700
H1221       H  0.78846748  0.16611111  0.20887205     0.20700
H1222       H  0.81529894  0.23621912  0.18854438     0.16700
H1223       H  0.78764155  0.25105587  0.21638855     0.19200
H1224       H  0.81629694  0.15121816  0.18098384     0.12600
C1225       C  0.22009237  0.20338596  0.20962797     0.16500
C1226       C  0.21146644  0.18511597  0.20136660    -0.32600
C1227       C  0.19546226  0.18709030  0.18674017     0.20900
C1228       C  0.18801338  0.20643753  0.18093244     0.03100
C1229       C  0.19662748  0.22482962  0.18933252    -0.22300
C1230       C  0.21307520  0.22282436  0.20369011     0.12200
S1231       S  0.23994028  0.20388983  0.22701381    -0.06000
C1232       C  0.24001315  0.23085680  0.22591763    -0.09400
C1233       C  0.22424795  0.23865512  0.21311595    -0.26000
S1234       S  0.16877142  0.20530078  0.16259171    -0.03200
C1235       C  0.17106780  0.17841735  0.16246061    -0.16700
C1236       C  0.18591726  0.17106199  0.17624155    -0.14700
H1237       H  0.21728781  0.16997678  0.20587127     0.20700
H1238       H  0.19105939  0.23998014  0.18456889     0.16700
H1239       H  0.22127482  0.25505721  0.21073909     0.19200
H1240       H  0.18981885  0.15478968  0.17814007     0.12600
C1241       C  0.17714635  0.40776016  0.43664028     0.16500
C1242       C  0.16702050  0.39067131  0.42775365    -0.32600
C1243       C  0.17592217  0.38170626  0.41013622     0.20900
C1244       C  0.19432286  0.38908609  0.40170117     0.03100
C1245       C  0.20495538  0.40588232  0.41109725    -0.22300
C1246       C  0.19581592  0.41513243  0.42871606     0.12200
S1247       S  0.16726800  0.42198975  0.45658824    -0.06000
C1248       C  0.18854677  0.43813503  0.45461753    -0.09400
C1249       C  0.20268406  0.43251889  0.43930238    -0.26000
S1250       S  0.20087721  0.37725198  0.37867421    -0.03200
C1251       C  0.17834307  0.36266220  0.38056321    -0.16700
C1252       C  0.16703147  0.36639881  0.39840589    -0.14700
H1253       H  0.15225638  0.38519069  0.43374977     0.20700
H1254       H  0.21915742  0.41203399  0.40446916     0.16700
H1255       H  0.21664737  0.44119036  0.43554595     0.19200
H1256       H  0.15227095  0.35910251  0.40208489     0.12600
C1257       C  0.22402848  0.28630914  0.27133550     0.16500
C1258       C  0.21647159  0.30456322  0.28056596    -0.32600
C1259       C  0.20118454  0.30254421  0.29589579     0.20900
C1260       C  0.19359798  0.28322280  0.30166574     0.03100
C1261       C  0.20119679  0.26492100  0.29239950    -0.22300
C1262       C  0.21664655  0.26694162  0.27713591     0.12200
S1263       S  0.24270418  0.28557301  0.25270560    -0.06000
C1264       C  0.24144291  0.25859840  0.25298870    -0.09400
C1265       C  0.22629923  0.25106107  0.26651772    -0.26000
S1266       S  0.17495649  0.28423501  0.32052225    -0.03200
C1267       C  0.17743251  0.31104200  0.32072725    -0.16700
C1268       C  0.19211306  0.31846784  0.30680515    -0.14700
H1269       H  0.22235316  0.31969742  0.27606873     0.20700
H1270       H  0.19540974  0.24978133  0.29696902     0.16700
H1271       H  0.22281279  0.23471745  0.26867846     0.19200
H1272       H  0.19591831  0.33476828  0.30479479     0.12600
C1273       C  0.17325912  0.59848944  0.56938422     0.16500
C1274       C  0.16708467  0.58503160  0.55340055    -0.32600
C1275       C  0.18125922  0.56991772  0.54689913     0.20900
C1276       C  0.20106008  0.56854729  0.55546057     0.03100
C1277       C  0.20733168  0.58219328  0.57152962    -0.22300
C1278       C  0.19280709  0.59705985  0.57851988     0.12200
S1279       S  0.15727990  0.61628793  0.58044749    -0.06000
C1280       C  0.17655963  0.62155877  0.59847368    -0.09400
C1281       C  0.19490954  0.61050472  0.59523349    -0.26000
S1282       S  0.21559276  0.54853967  0.54543866    -0.03200
C1283       C  0.19445744  0.54179108  0.53009156    -0.16700
C1284       C  0.17738094  0.55467636  0.53249928    -0.14700
H1285       H  0.15154064  0.58583578  0.54679954     0.20700
H1286       H  0.22256174  0.58082246  0.57871099     0.16700
H1287       H  0.20841249  0.61116082  0.60536048     0.19200
H1288       H  0.16267686  0.55278206  0.52436012     0.12600
C1289       C  0.21414113  0.68277888  0.68642163     0.16500
C1290       C  0.22896528  0.68650112  0.70220310    -0.32600
C1291       C  0.23050390  0.70680834  0.71043792     0.20900
C1292       C  0.21818053  0.72274264  0.70294697     0.03100
C1293       C  0.20339010  0.71903373  0.68718092    -0.22300
C1294       C  0.20154722  0.69866772  0.67925461     0.12200
S1295       S  0.20911974  0.65914122  0.67501096    -0.06000
C1296       C  0.18921192  0.67049462  0.66082766    -0.09400
C1297       C  0.18739538  0.69184151  0.66459004    -0.26000
S1298       S  0.22296757  0.74635936  0.71437178    -0.03200
C1299       C  0.24154544  0.73478052  0.73028040    -0.16700
C1300       C  0.24378875  0.71349182  0.72598746    -0.14700
H1301       H  0.23868777  0.67404832  0.70800330     0.20700
H1302       H  0.19357714  0.73146122  0.68148009     0.16700
H1303       H  0.17606623  0.70203395  0.65756004     0.19200
H1304       H  0.25502321  0.70336553  0.73335861     0.12600
C1305       C  0.19489270  0.58717919  0.39944745     0.16500
C1306       C  0.20631143  0.57605846  0.41443494    -0.32600
C1307       C  0.19791116  0.55707304  0.42140765     0.20900
C1308       C  0.17924720  0.54947462  0.41343621     0.03100
C1309       C  0.16808310  0.56037653  0.39838335    -0.22300
C1310       C  0.17615707  0.57942846  0.39185694     0.12200
S1311       S  0.20143366  0.61107369  0.38964757    -0.06000
C1312       C  0.17835977  0.61057207  0.37578267    -0.09400
C1313       C  0.16664769  0.59272584  0.37839191    -0.26000
S1314       S  0.17047436  0.52736586  0.42479550    -0.03200
C1315       C  0.19193943  0.52823940  0.44086722    -0.16700
C1316       C  0.20549335  0.54469492  0.43713413    -0.14700
H1317       H  0.22068772  0.58223027  0.42083942     0.20700
H1318       H  0.15327768  0.55462384  0.39258303     0.16700
H1319       H  0.15180008  0.58967300  0.37090131     0.19200
H1320       H  0.21925247  0.54818510  0.44630525     0.12600
C1321       C  0.21298809  0.68198012  0.30154906     0.16500
C1322       C  0.23149319  0.68975272  0.29316858    -0.32600
C1323       C  0.22992377  0.70497485  0.27780894     0.20900
C1324       C  0.21078121  0.71203306  0.27086366     0.03100
C1325       C  0.19213966  0.70437183  0.27942354    -0.22300
C1326       C  0.19372255  0.68918923  0.29503212     0.12200
S1327       S  0.21195161  0.66369548  0.32045636    -0.06000
C1328       C  0.18509868  0.66570838  0.32017684    -0.09400
C1329       C  0.17761351  0.67994413  0.30571316    -0.26000
S1330       S  0.21253165  0.73018791  0.25165345    -0.03200
C1331       C  0.23950244  0.72795127  0.25260768    -0.16700
C1332       C  0.24626662  0.71431880  0.26791650    -0.14700
H1333       H  0.24651750  0.68417235  0.29843879     0.20700
H1334       H  0.17712615  0.70999136  0.27417566     0.16700
H1335       H  0.16128553  0.68348687  0.30336444     0.19200
H1336       H  0.26248392  0.71108290  0.27130808     0.12600
C1337       C  0.17441669  0.43497183  0.57310598     0.16500
C1338       C  0.16345182  0.42634019  0.58965681    -0.32600
C1339       C  0.17233689  0.40934611  0.59982330     0.20900
C1340       C  0.19143131  0.40126173  0.59398684     0.03100
C1341       C  0.20269084  0.41020929  0.57754174    -0.22300
C1342       C  0.19367511  0.42725765  0.56717749     0.12200
S1343       S  0.16526099  0.45466621  0.55815088    -0.06000
C1344       C  0.18762419  0.45287776  0.54359713    -0.09400
C1345       C  0.20151699  0.43769381  0.55023078    -0.26000
S1346       S  0.19851426  0.37950432  0.60764660    -0.03200
C1347       C  0.17528124  0.38127833  0.62097897    -0.16700
C1348       C  0.16324084  0.39824839  0.61537687    -0.14700
H1349       H  0.14829395  0.43226322  0.59405389     0.20700
H1350       H  0.21751144  0.40384390  0.57270392     0.16700
H1351       H  0.21610677  0.43404183  0.54268579     0.19200
H1352       H  0.14818824  0.40206374  0.62187571     0.12600
C1353       C  0.20711232  0.30789302  0.69505667     0.16500
C1354       C  0.22337507  0.30332316  0.70892647    -0.32600
C1355       C  0.22819833  0.28229726  0.71234608     0.20900
C1356       C  0.21732374  0.26651909  0.70248763     0.03100
C1357       C  0.20130449  0.27106690  0.68823185    -0.22300
C1358       C  0.19649020  0.29214864  0.68475816     0.12200
S1359       S  0.19863197  0.33237153  0.68922679    -0.06000
C1360       C  0.18080704  0.32155247  0.67211302    -0.09400
C1361       C  0.18145089  0.29981953  0.67155731    -0.26000
S1362       S  0.22516759  0.24214883  0.70958704    -0.03200
C1363       C  0.24320962  0.25310767  0.72662894    -0.16700
C1364       C  0.24328767  0.27487212  0.72552184    -0.14700
H1365       H  0.23177251  0.31563429  0.71689161     0.20700
H1366       H  0.19285738  0.25873823  0.68034626     0.16700
H1367       H  0.17157277  0.28991186  0.66215593     0.19200
H1368       H  0.25371312  0.28521064  0.73374841     0.12600
C1369       C  0.07489308  0.29944846  0.42532654     0.16500
C1370       C  0.09186271  0.29332737  0.41284828    -0.32600
C1371       C  0.09944467  0.30781406  0.39827741     0.20900
C1372       C  0.09016932  0.32716620  0.39617371     0.03100
C1373       C  0.07341413  0.33315965  0.40844978    -0.22300
C1374       C  0.06619925  0.31903646  0.42310105     0.12200
S1375       S  0.06356115  0.28502544  0.44466448    -0.06000
C1376       C  0.04748894  0.30598007  0.44977758    -0.09400
C1377       C  0.05070952  0.32284965  0.43697585    -0.26000
S1378       S  0.10152364  0.34308491  0.37871024    -0.03200
C1379       C  0.11973162  0.32400385  0.37423540    -0.16700
C1380       C  0.11653610  0.30578260  0.38544221    -0.14700
H1381       H  0.09908467  0.27824071  0.41473320     0.20700
H1382       H  0.06659064  0.34849512  0.40699204     0.16700
H1383       H  0.04229299  0.33741790  0.43796188     0.19200
H1384       H  0.12665651  0.29233772  0.38499358     0.12600
C1385       C  0.10915129  0.33146519  0.58083790     0.16500
C1386       C  0.09836868  0.33547211  0.56242884    -0.32600
C1387       C  0.08204340  0.32206054  0.55702604     0.20900
C1388       C  0.07686681  0.30502494  0.56910759     0.03100
C1389       C  0.08785537  0.30086866  0.58756296    -0.22300
C1390       C  0.10403636  0.31461074  0.59322219     0.12200
S1391       S  0.12808918  0.34718226  0.59069591    -0.06000
C1392       C  0.12907675  0.33123180  0.61205874    -0.09400
C1393       C  0.11568497  0.31424766  0.61120745    -0.26000
S1394       S  0.05588236  0.29117569  0.55991223    -0.03200
C1395       C  0.05397466  0.30889751  0.53996229    -0.16700
C1396       C  0.06899757  0.32437157  0.54041259    -0.14700
H1397       H  0.10211243  0.34891783  0.55303583     0.20700
H1398       H  0.08359999  0.28788538  0.59735157     0.16700
H1399       H  0.11377106  0.30299856  0.62352319     0.19200
H1400       H  0.07002947  0.33700134  0.52936211     0.12600
C1401       C  0.08256744  0.42008371  0.30125118     0.16500
C1402       C  0.09401615  0.40193603  0.29677687    -0.32600
C1403       C  0.10876371  0.39532537  0.31160066     0.20900
C1404       C  0.11221676  0.40670951  0.32962703     0.03100
C1405       C  0.10098923  0.42475111  0.33397502    -0.22300
C1406       C  0.08594168  0.43093591  0.31960581     0.12200
S1407       S  0.06289087  0.43016516  0.28630471    -0.06000
C1408       C  0.05893531  0.44858573  0.30546390    -0.09400
C1409       C  0.07247717  0.44714870  0.32212139    -0.26000
S1410       S  0.12955584  0.39603139  0.34632262    -0.03200
C1411       C  0.13193073  0.37532661  0.32945752    -0.16700
C1412       C  0.12027901  0.37720842  0.31129570    -0.14700
H1413       H  0.09105521  0.39301647  0.28277473     0.20700
H1414       H  0.10334153  0.43319517  0.34838990     0.16700
H1415       H  0.07217303  0.45719670  0.33566342     0.19200
H1416       H  0.11933605  0.36548910  0.29920873     0.12600
C1417       C  0.09439468  0.59316374  0.33381458     0.16500
C1418       C  0.07695974  0.58078861  0.33802192    -0.32600
C1419       C  0.07109691  0.56585569  0.32322269     0.20900
C1420       C  0.08188600  0.56345871  0.30479142     0.03100
C1421       C  0.09945912  0.57593782  0.30054546    -0.22300
C1422       C  0.10551292  0.59081805  0.31556469     0.12200
S1423       S  0.10431512  0.61127912  0.35046515    -0.06000
C1424       C  0.12407006  0.61581889  0.33299742    -0.09400
C1425       C  0.12257723  0.60394729  0.31491925    -0.26000
S1426       S  0.07205900  0.54408993  0.28906760    -0.03200
C1427       C  0.05354400  0.53905146  0.30779039    -0.16700
C1428       C  0.05501201  0.55193649  0.32505193    -0.14700
H1429       H  0.06850987  0.58248506  0.35245239     0.20700
H1430       H  0.10818349  0.57393351  0.28633347     0.16700
H1431       H  0.13378078  0.60427172  0.30241423     0.19200
H1432       H  0.04489069  0.55103091  0.33843713     0.12600
C1433       C  0.08743603  0.56848607  0.68524253     0.16500
C1434       C  0.10031563  0.58584640  0.68922104    -0.32600
C1435       C  0.11565307  0.59073307  0.67443019     0.20900
C1436       C  0.11831090  0.57848801  0.65686389     0.03100
C1437       C  0.10568680  0.56115930  0.65303766    -0.22300
C1438       C  0.09007187  0.55669683  0.66739043     0.12200
S1439       S  0.06676923  0.56062035  0.70015104    -0.06000
C1440       C  0.06147845  0.54177450  0.68168190    -0.09400
C1441       C  0.07528748  0.54152397  0.66525602    -0.26000
S1442       S  0.13621423  0.58759363  0.63983202    -0.03200
C1443       C  0.13989291  0.60867530  0.65601929    -0.16700
C1444       C  0.12829058  0.60810791  0.67415740    -0.14700
H1445       H  0.09794443  0.59556276  0.70276824     0.20700
H1446       H  0.10736659  0.55205840  0.63895325     0.16700
H1447       H  0.07424506  0.53103546  0.65207708     0.19200
H1448       H  0.12790241  0.62046585  0.68561902     0.12600
C1449       C  0.06743952  0.42219081  0.66503168     0.16500
C1450       C  0.07673141  0.40574073  0.65434778    -0.32600
C1451       C  0.09326085  0.39543613  0.66399951     0.20900
C1452       C  0.10024818  0.40093989  0.68363049     0.03100
C1453       C  0.09046949  0.41719421  0.69470673    -0.22300
C1454       C  0.07391915  0.42779958  0.68484584     0.12200
S1455       S  0.04847450  0.43747797  0.65478360    -0.06000
C1456       C  0.04875889  0.45177473  0.67741168    -0.09400
C1457       C  0.06296763  0.44478117  0.69223212    -0.26000
S1458       S  0.12196553  0.38731669  0.69142391    -0.03200
C1459       C  0.12166418  0.37460868  0.66770491    -0.16700
C1460       C  0.10507331  0.38023391  0.65509049    -0.14700
H1461       H  0.07177609  0.40163612  0.63876375     0.20700
H1462       H  0.09595202  0.42181584  0.70995797     0.16700
H1463       H  0.06562048  0.45210652  0.70717182     0.19200
H1464       H  0.10206789  0.37407253  0.63970473     0.12600
C1465       C  0.07621933  0.69296096  0.56981416     0.16500
C1466       C  0.09402255  0.69744413  0.58186897    -0.32600
C1467       C  0.10119785  0.68195313  0.59549829     0.20900
C1468       C  0.09055471  0.66326532  0.59755150     0.03100
C1469       C  0.07257234  0.65902310  0.58596144    -0.22300
C1470       C  0.06596276  0.67406242  0.57179277     0.12200
S1471       S  0.06643870  0.70837719  0.55046522    -0.06000
C1472       C  0.04892690  0.68876443  0.54464233    -0.09400
C1473       C  0.05032631  0.67161241  0.55751055    -0.26000
S1474       S  0.10250683  0.64561154  0.61305684    -0.03200
C1475       C  0.12266195  0.66310380  0.61639201    -0.16700
C1476       C  0.11961370  0.68208495  0.60659136    -0.14700
H1477       H  0.10254859  0.71185818  0.57986386     0.20700
H1478       H  0.06476651  0.64409201  0.58705583     0.16700
H1479       H  0.04094149  0.65764238  0.55593592     0.19200
H1480       H  0.13090441  0.69463114  0.60632159     0.12600
C1481       C  0.10909784  0.68427250  0.40149670     0.16500
C1482       C  0.09235826  0.69526632  0.41028341    -0.32600
C1483       C  0.08409075  0.68782129  0.42905142     0.20900
C1484       C  0.09241310  0.67046752  0.43874750     0.03100
C1485       C  0.10946245  0.65994218  0.43033894    -0.22300
C1486       C  0.11735722  0.66705865  0.41144417     0.12200
S1487       S  0.11979580  0.68895654  0.37760815    -0.06000
C1488       C  0.13502945  0.66713764  0.38100419    -0.09400
C1489       C  0.13232795  0.65739427  0.39992773    -0.26000
S1490       S  0.07915633  0.66249260  0.46014231    -0.03200
C1491       C  0.06213271  0.68275978  0.45620094    -0.16700
C1492       C  0.06679572  0.69519088  0.43925502    -0.14700
H1493       H  0.08548245  0.70843092  0.40238479     0.20700
H1494       H  0.11565363  0.64612899  0.43769245     0.16700
H1495       H  0.14021261  0.64328455  0.40464397     0.19200
H1496       H  0.05745963  0.70822112  0.43411472     0.12600
C1497       C  0.90216776  0.66968335  0.56862747     0.16500
C1498       C  0.91318391  0.66634820  0.55027410    -0.32600
C1499       C  0.92985949  0.67967951  0.54602495     0.20900
C1500       C  0.93498572  0.69618392  0.55902534     0.03100
C1501       C  0.92362647  0.69981266  0.57729009    -0.22300
C1502       C  0.90726798  0.68598322  0.58191084     0.12200
S1503       S  0.88341550  0.65335182  0.57766191    -0.06000
C1504       C  0.88252022  0.66829210  0.59984119    -0.09400
C1505       C  0.89575381  0.68543068  0.59985263    -0.26000
S1506       S  0.95679004  0.70961953  0.55154613    -0.03200
C1507       C  0.95921323  0.69229334  0.53120288    -0.16700
C1508       C  0.94365870  0.67739111  0.53011789    -0.14700
H1509       H  0.90959402  0.65322363  0.54025529     0.20700
H1510       H  0.92795821  0.71223428  0.58788531     0.16700
H1511       H  0.89785753  0.69600059  0.61283148     0.19200
H1512       H  0.94296079  0.66497566  0.51869956     0.12600
C1513       C  0.92792944  0.60503899  0.65227540     0.16500
C1514       C  0.94520839  0.59258187  0.64796325    -0.32600
C1515       C  0.95265371  0.57969231  0.66375607     0.20900
C1516       C  0.94377889  0.57956918  0.68331502     0.03100
C1517       C  0.92662993  0.59249307  0.68781213    -0.22300
C1518       C  0.91871664  0.60503658  0.67169310     0.12200
S1519       S  0.91546297  0.61975051  0.63426243    -0.06000
C1520       C  0.89706050  0.62583609  0.65270748    -0.09400
C1521       C  0.90103086  0.61725130  0.67213527    -0.26000
S1522       S  0.95459741  0.56152445  0.69974995    -0.03200
C1523       C  0.97076206  0.55387605  0.67975270    -0.16700
C1524       C  0.96806074  0.56518999  0.66168219    -0.14700
H1525       H  0.95199446  0.59224777  0.63260047     0.20700
H1526       H  0.91925555  0.59212498  0.70288282     0.16700
H1527       H  0.89097187  0.61891371  0.68547303     0.19200
H1528       H  0.97646537  0.56242974  0.64739126     0.12600
C1529       C  0.82014726  0.59116946  0.59057856     0.16500
C1530       C  0.80794675  0.58031189  0.57588618    -0.32600
C1531       C  0.81621298  0.56201347  0.56715499     0.20900
C1532       C  0.83558278  0.55466280  0.57337355     0.03100
C1533       C  0.84746382  0.56518128  0.58827964    -0.22300
C1534       C  0.83954140  0.58367015  0.59643368     0.12200
S1535       S  0.81413148  0.61475357  0.60157331    -0.06000
C1536       C  0.83825454  0.61458884  0.61356950    -0.09400
C1537       C  0.84984818  0.59691495  0.60957040    -0.26000
S1538       S  0.84410214  0.53355361  0.55999895    -0.03200
C1539       C  0.82162618  0.53457852  0.54534559    -0.16700
C1540       C  0.80793621  0.55025405  0.55114340    -0.14700
H1541       H  0.79288056  0.58643992  0.57073760     0.20700
H1542       H  0.86298045  0.55961953  0.59266498     0.16700
H1543       H  0.86548161  0.59406903  0.61558204     0.19200
H1544       H  0.79329250  0.55368551  0.54319534     0.12600
C1545       C  0.81734606  0.70308669  0.68119806     0.16500
C1546       C  0.80798057  0.72110702  0.68924902    -0.32600
C1547       C  0.79379972  0.71877540  0.70561008     0.20900
C1548       C  0.78896650  0.69934259  0.71341909     0.03100
C1549       C  0.79850986  0.68129455  0.70551827    -0.22300
C1550       C  0.81288726  0.68364752  0.68927536     0.12200
S1551       S  0.83452933  0.70267551  0.66107265    -0.06000
C1552       C  0.83604788  0.67591077  0.66343937    -0.09400
C1553       C  0.82370075  0.66804634  0.67932112    -0.26000
S1554       S  0.77068427  0.69985095  0.73259864    -0.03200
C1555       C  0.76979770  0.72679723  0.73075740    -0.16700
C1556       C  0.78306634  0.73444692  0.71544399    -0.14700
H1557       H  0.81152080  0.73629983  0.68294492     0.20700
H1558       H  0.79478425  0.66608102  0.71167045     0.16700
H1559       H  0.82240582  0.65168293  0.68307554     0.19200
H1560       H  0.78453100  0.75075901  0.71153367     0.12600
C1561       C  0.94231257  0.68898958  0.41854425     0.16500
C1562       C  0.92491467  0.69320118  0.40576810    -0.32600
C1563       C  0.91746276  0.67701167  0.39284078     0.20900
C1564       C  0.92720361  0.65777444  0.39260515     0.03100
C1565       C  0.94441120  0.65363076  0.40521741    -0.22300
C1566       C  0.95158033  0.66953418  0.41822534     0.12200
S1567       S  0.95348039  0.70583898  0.43614430    -0.06000
C1568       C  0.97036463  0.68615350  0.44321022    -0.09400
C1569       C  0.96749806  0.66781949  0.43223876    -0.26000
S1570       S  0.91590759  0.63981257  0.37685719    -0.03200
C1571       C  0.89719459  0.65793021  0.37057496    -0.16700
C1572       C  0.90014680  0.67728146  0.37998061    -0.14700
H1573       H  0.91730062  0.70821719  0.40620514     0.20700
H1574       H  0.95164950  0.63840943  0.40522979     0.16700
H1575       H  0.97634315  0.65369545  0.43472798     0.19200
H1576       H  0.88975870  0.69041720  0.37825139     0.12600
C1577       C  0.83943717  0.59997631  0.41271645     0.16500
C1578       C  0.84317821  0.58965987  0.43145112    -0.32600
C1579       C  0.83032856  0.57278847  0.43640532     0.20900
C1580       C  0.81390008  0.56683688  0.42363942     0.03100
C1581       C  0.81007948  0.57727026  0.40478656    -0.22300
C1582       C  0.82344912  0.59384023  0.39946878     0.12200
S1583       S  0.85493672  0.61917007  0.40326837    -0.06000
C1584       C  0.84039316  0.61870167  0.38072215    -0.09400
C1585       C  0.82379902  0.60472448  0.38099429    -0.26000
S1586       S  0.80049300  0.54554140  0.43250621    -0.03200
C1587       C  0.81771923  0.54433973  0.45315048    -0.16700
C1588       C  0.83270289  0.55989522  0.45316673    -0.14700
H1589       H  0.85613405  0.59409273  0.44137558     0.20700
H1590       H  0.79772216  0.57222732  0.39441236     0.16700
H1591       H  0.81360637  0.60160437  0.36790449     0.19200
H1592       H  0.84497082  0.56145872  0.46467629     0.12600
C1593       C  0.90732587  0.57270927  0.33012274     0.16500
C1594       C  0.91896086  0.55489899  0.33456376    -0.32600
C1595       C  0.93468449  0.54933535  0.32067062     0.20900
C1596       C  0.93835966  0.56063030  0.30276148     0.03100
C1597       C  0.92651552  0.57842526  0.29818471    -0.22300
C1598       C  0.91102774  0.58430883  0.31240757     0.12200
S1599       S  0.88902371  0.58287732  0.34618698    -0.06000
C1600       C  0.88639742  0.60333345  0.32918870    -0.09400
C1601       C  0.89884428  0.60190005  0.31166321    -0.26000
S1602       S  0.95868312  0.55143247  0.28827833    -0.03200
C1603       C  0.96248601  0.53261241  0.30691077    -0.16700
C1604       C  0.94848072  0.53334396  0.32315988    -0.14700
H1605       H  0.91633679  0.54614045  0.34865504     0.20700
H1606       H  0.92964449  0.58760796  0.28448256     0.16700
H1607       H  0.89979173  0.61363198  0.29968541     0.19200
H1608       H  0.94858855  0.52287637  0.33630426     0.12600
C1609       C  0.82203958  0.68350014  0.28801024     0.16500
C1610       C  0.81375464  0.69129193  0.26930152    -0.32600
C1611       C  0.79809885  0.70657869  0.27052589     0.20900
C1612       C  0.79123945  0.71387146  0.28952085     0.03100
C1613       C  0.79976551  0.70636062  0.30818538    -0.22300
C1614       C  0.81525387  0.69096679  0.30699141     0.12200
S1615       S  0.84022306  0.66414715  0.28998049    -0.06000
C1616       C  0.83872054  0.66592797  0.31679208    -0.09400
C1617       C  0.82490821  0.68121133  0.32345547    -0.26000
S1618       S  0.77166795  0.73175594  0.28778677    -0.03200
C1619       C  0.77193106  0.72920111  0.26096234    -0.16700
C1620       C  0.78744503  0.71552428  0.25418229    -0.14700
H1621       H  0.81896676  0.68537267  0.25445597     0.20700
H1622       H  0.79425636  0.71199249  0.32302967     0.16700
H1623       H  0.82172262  0.68464560  0.33959075     0.19200
H1624       H  0.79039834  0.71192275  0.23803377     0.12600
C1625       C  0.81798282  0.39888386  0.39937100     0.16500
C1626       C  0.80691391  0.40848244  0.41564498    -0.32600
C1627       C  0.81453714  0.42762810  0.42334690     0.20900
C1628       C  0.83212980  0.43681119  0.41488025     0.03100
C1629       C  0.84287942  0.42746083  0.39852225    -0.22300
C1630       C  0.83559100  0.40826449  0.39121154     0.12200
S1631       S  0.81258673  0.37491395  0.38871775    -0.06000
C1632       C  0.83458451  0.37760139  0.37360910    -0.09400
C1633       C  0.84509420  0.39621249  0.37653535    -0.26000
S1634       S  0.84019219  0.45890467  0.42709371    -0.03200
C1635       C  0.81982704  0.45595699  0.44411817    -0.16700
C1636       C  0.80715750  0.43879122  0.44012578    -0.14700
H1637       H  0.79344178  0.40103664  0.42245437     0.20700
H1638       H  0.85686970  0.43447623  0.39229542     0.16700
H1639       H  0.85933607  0.40051251  0.36865991     0.19200
H1640       H  0.79410235  0.43411612  0.44962772     0.12600
C1641       C  0.90894891  0.30996158  0.40223097     0.16500
C1642       C  0.92566312  0.29950010  0.41183620    -0.32600
C1643       C  0.93448989  0.30858568  0.42979943     0.20900
C1644       C  0.92689047  0.32715049  0.43776369     0.03100
C1645       C  0.90999278  0.33724251  0.42851159    -0.22300
C1646       C  0.90135285  0.32831273  0.41059691     0.12200
S1647       S  0.89704566  0.30285020  0.37933409    -0.06000
C1648       C  0.88203615  0.32507648  0.38106469    -0.09400
C1649       C  0.88585119  0.33680388  0.39878438    -0.26000
S1650       S  0.94035781  0.33666290  0.45856727    -0.03200
C1651       C  0.95639639  0.31531490  0.45694808    -0.16700
C1652       C  0.95138362  0.30150528  0.44100759    -0.14700
H1653       H  0.93188042  0.28528217  0.40528750     0.20700
H1654       H  0.90424015  0.35184760  0.43464651     0.16700
H1655       H  0.87816841  0.35129913  0.40258521     0.19200
H1656       H  0.96002925  0.28750920  0.43741227     0.12600
C1657       C  0.92339306  0.39157494  0.33245117     0.16500
C1658       C  0.94147515  0.40300739  0.33692399    -0.32600
C1659       C  0.94878273  0.41678092  0.32182087     0.20900
C1660       C  0.93888005  0.41877118  0.30278241     0.03100
C1661       C  0.92080578  0.40704032  0.29817041    -0.22300
C1662       C  0.91315254  0.39351865  0.31357298     0.12200
S1663       S  0.91142587  0.37550256  0.34959052    -0.06000
C1664       C  0.89189697  0.37140356  0.33152383    -0.09400
C1665       C  0.89507536  0.38173797  0.31283574    -0.26000
S1666       S  0.95004087  0.43715713  0.28701430    -0.03200
C1667       C  0.96784024  0.44245028  0.30655398    -0.16700
C1668       C  0.96527576  0.43022007  0.32405391    -0.14700
H1669       H  0.94915493  0.40172090  0.35187241     0.20700
H1670       H  0.91273218  0.40884006  0.28349783     0.16700
H1671       H  0.88435666  0.38137346  0.29981714     0.19200
H1672       H  0.97471483  0.43146135  0.33799144     0.12600
C1673       C  0.80617337  0.30891803  0.29304719     0.16500
C1674       C  0.79060285  0.30518988  0.27791014    -0.32600
C1675       C  0.78577503  0.28433602  0.27282069     0.20900
C1676       C  0.79631199  0.26810306  0.28219057     0.03100
C1677       C  0.81170253  0.27181295  0.29734257    -0.22300
C1678       C  0.81626437  0.29255088  0.30265828     0.12200
S1679       S  0.81433740  0.33289777  0.30162169    -0.06000
C1680       C  0.83124295  0.32081897  0.31881517    -0.09400
C1681       C  0.83049083  0.29915978  0.31737410    -0.26000
S1682       S  0.78864594  0.24404822  0.27393049    -0.03200
C1683       C  0.76992981  0.25553305  0.25817796    -0.16700
C1684       C  0.77075963  0.27730931  0.25892764    -0.14700
H1685       H  0.78249968  0.31796727  0.27056788     0.20700
H1686       H  0.81968570  0.25902674  0.30480309     0.16700
H1687       H  0.83974467  0.28852932  0.32647316     0.19200
H1688       H  0.76087294  0.28758535  0.25004569     0.12600
C1689       C  0.91026551  0.41039841  0.68098316     0.16500
C1690       C  0.92500627  0.42188762  0.69264264    -0.32600
C1691       C  0.93581190  0.43804515  0.68252289     0.20900
C1692       C  0.93174109  0.44263997  0.66189194     0.03100
C1693       C  0.91684934  0.43149458  0.65046587    -0.22300
C1694       C  0.90643697  0.41521817  0.66039170     0.12200
S1695       S  0.89651278  0.38916351  0.68953001    -0.06000
C1696       C  0.88599473  0.38659707  0.66489495    -0.09400
C1697       C  0.89251247  0.40187202  0.65122186    -0.26000
S1698       S  0.94701639  0.46168681  0.65178171    -0.03200
C1699       C  0.95937749  0.46371567  0.67548103    -0.16700
C1700       C  0.95166124  0.45030315  0.69054515    -0.14700
H1701       H  0.92834395  0.41800900  0.70864518     0.20700
H1702       H  0.91399544  0.43492620  0.63426368     0.16700
H1703       H  0.88763946  0.40308556  0.63517805     0.19200
H1704       H  0.95777211  0.44907458  0.70617728     0.12600
C1705       C  0.84343097  0.39293088  0.57813378     0.16500
C1706       C  0.84798757  0.40409091  0.56009420    -0.32600
C1707       C  0.83380648  0.41933973  0.55375760     0.20900
C1708       C  0.81547038  0.42288487  0.56448990     0.03100
C1709       C  0.81076676  0.41148598  0.58249875    -0.22300
C1710       C  0.82533438  0.39659748  0.58923555     0.12200
S1711       S  0.85992208  0.37559602  0.58935562    -0.06000
C1712       C  0.84274924  0.37357377  0.60976708    -0.09400
C1713       C  0.82470986  0.38527275  0.60737788    -0.26000
S1714       S  0.80071127  0.44264831  0.55444546    -0.03200
C1715       C  0.81976035  0.44645153  0.53598856    -0.16700
C1716       C  0.83639691  0.43282814  0.53752767    -0.14700
H1717       H  0.86242630  0.40157048  0.55180696     0.20700
H1718       H  0.79675791  0.41462072  0.59127602     0.16700
H1719       H  0.81251525  0.38649231  0.61887454     0.19200
H1720       H  0.84989993  0.43302450  0.52749533     0.12600
C1721       C  0.91363275  0.31309680  0.59674091     0.16500
C1722       C  0.92218790  0.30254173  0.57961986    -0.32600
C1723       C  0.93990436  0.31130557  0.57021651     0.20900
C1724       C  0.94874102  0.32958918  0.57771748     0.03100
C1725       C  0.94057138  0.33975136  0.59505436    -0.22300
C1726       C  0.92281070  0.33120023  0.60420936     0.12200
S1727       S  0.89082149  0.30668414  0.60897180    -0.06000
C1728       C  0.89364650  0.32890671  0.62385150    -0.09400
C1729       C  0.91165034  0.34008063  0.61987321    -0.26000
S1730       S  0.96911070  0.33870639  0.56356281    -0.03200
C1731       C  0.96602233  0.31759439  0.54732454    -0.16700
C1732       C  0.94999291  0.30415077  0.55279795    -0.14700
H1733       H  0.91493056  0.28858367  0.57344392     0.20700
H1734       H  0.94730251  0.35420370  0.60068575     0.16700
H1735       H  0.91578891  0.35470835  0.62725851     0.19200
H1736       H  0.94563043  0.29028078  0.54420226     0.12600
C1737       C  0.81543972  0.31002665  0.70193979     0.16500
C1738       C  0.80752603  0.30154048  0.72036809    -0.32600
C1739       C  0.79295820  0.28525336  0.71871742     0.20900
C1740       C  0.78646143  0.27784591  0.69956324     0.03100
C1741       C  0.79455901  0.28617256  0.68108594    -0.22300
C1742       C  0.80925263  0.30241212  0.68273782     0.12200
S1743       S  0.83324433  0.32977584  0.70075326    -0.06000
C1744       C  0.83280582  0.32778378  0.67396692    -0.09400
C1745       C  0.81921429  0.31242713  0.66666587    -0.26000
S1746       S  0.76811117  0.25857850  0.70099239    -0.03200
C1747       C  0.76858314  0.26070650  0.72788368    -0.16700
C1748       C  0.78326254  0.27522979  0.73487466    -0.14700
H1749       H  0.81246372  0.30744685  0.73536705     0.20700
H1750       H  0.78956107  0.28030544  0.66609046     0.16700
H1751       H  0.81694668  0.30865344  0.65041992     0.19200
H1752       H  0.78619002  0.27874170  0.75107717     0.12600
C1753       C  0.58704850  0.88162242  0.67452509     0.16500
C1754       C  0.56771204  0.89148931  0.67297448    -0.32600
C1755       C  0.56545714  0.91077320  0.68284390     0.20900
C1756       C  0.58135813  0.91944207  0.69472155     0.03100
C1757       C  0.60067885  0.90930392  0.69662823    -0.22300
C1758       C  0.60329439  0.89040318  0.68585364     0.12200
S1759       S  0.59366888  0.86013525  0.66061050    -0.06000
C1760       C  0.61885181  0.86330649  0.66928440    -0.09400
C1761       C  0.62166974  0.87971366  0.68310394    -0.26000
S1762       S  0.57576610  0.94373618  0.70424227    -0.03200
C1763       C  0.55221977  0.94235583  0.69133046    -0.16700
C1764       C  0.54881183  0.92387448  0.68075509    -0.14700
H1765       H  0.55539025  0.88506082  0.66332835     0.20700
H1766       H  0.61347567  0.91644734  0.70506526     0.16700
H1767       H  0.63663223  0.88466044  0.68922748     0.19200
H1768       H  0.53517459  0.92056139  0.67131547     0.12600
C1769       C  0.66244017  0.90394382  0.59072167     0.16500
C1770       C  0.65732765  0.91922414  0.57624069    -0.32600
C1771       C  0.67361684  0.92882052  0.56557534     0.20900
C1772       C  0.69427004  0.92372514  0.56922808     0.03100
C1773       C  0.69945021  0.90833374  0.58393381    -0.22300
C1774       C  0.68296119  0.89846181  0.59452898     0.12200
S1775       S  0.64456300  0.89022860  0.60440170    -0.06000
C1776       C  0.66464203  0.87636484  0.61554687    -0.09400
C1777       C  0.68437203  0.88260768  0.60888225    -0.26000
S1778       S  0.71149790  0.93736978  0.55403839    -0.03200
C1779       C  0.69045279  0.94973945  0.54267273    -0.16700
C1780       C  0.67136421  0.94355015  0.55051664    -0.14700
H1781       H  0.64122649  0.92326005  0.57317403     0.20700
H1782       H  0.71552116  0.90405365  0.58676429     0.16700
H1783       H  0.69892505  0.87573982  0.61386427     0.19200
H1784       H  0.65642506  0.94941299  0.54530170     0.12600
C1785       C  0.59878855  0.80430603  0.58830204     0.16500
C1786       C  0.58912726  0.79343661  0.57175216    -0.32600
C1787       C  0.57003548  0.80122742  0.56404393     0.20900
C1788       C  0.56101360  0.81879850  0.57272796     0.03100
C1789       C  0.57038215  0.82926929  0.58936027    -0.22300
C1790       C  0.58946384  0.82178478  0.59669806     0.12200
S1791       S  0.62268441  0.79881179  0.59920425    -0.06000
C1792       C  0.62006883  0.82064929  0.61479425    -0.09400
C1793       C  0.60137885  0.83102258  0.61172875    -0.26000
S1794       S  0.53902437  0.82712908  0.56055181    -0.03200
C1795       C  0.54166548  0.80683324  0.54329167    -0.16700
C1796       C  0.55873037  0.79402997  0.54714416    -0.14700
H1797       H  0.59645947  0.77998228  0.56478431     0.20700
H1798       H  0.56345312  0.84320213  0.59582304     0.16700
H1799       H  0.59662451  0.84500806  0.61968892     0.19200
H1800       H  0.56320839  0.78096404  0.53750841     0.12600
C1801       C  0.70893175  0.80630754  0.68989118     0.16500
C1802       C  0.72354998  0.80290190  0.70585137    -0.32600
C1803       C  0.72899503  0.78221343  0.71039875     0.20900
C1804       C  0.72068927  0.76576254  0.69915112     0.03100
C1805       C  0.70641983  0.76918715  0.68293256    -0.22300
C1806       C  0.70052512  0.78980249  0.67877208     0.12200
S1807       S  0.69888324  0.82997926  0.68321040    -0.06000
C1808       C  0.68267592  0.81758232  0.66549226    -0.09400
C1809       C  0.68564106  0.79610750  0.66470345    -0.26000
S1810       S  0.72854923  0.74187734  0.70753940    -0.03200
C1811       C  0.74269517  0.75389879  0.72726477    -0.16700
C1812       C  0.74185470  0.77561434  0.72622140    -0.14700
H1813       H  0.72983546  0.81576940  0.71482260     0.20700
H1814       H  0.69965212  0.75627071  0.67439433     0.16700
H1815       H  0.67700412  0.78535835  0.65500780     0.19200
H1816       H  0.74991106  0.78622950  0.73655787     0.12600
C1817       C  0.41805303  0.89931418  0.65586444     0.16500
C1818       C  0.43483972  0.91219516  0.65097610    -0.32600
C1819       C  0.44330133  0.92450674  0.66679817     0.20900
C1820       C  0.43573791  0.92389801  0.68688221     0.03100
C1821       C  0.41878391  0.91077073  0.69186842    -0.22300
C1822       C  0.40997387  0.89855526  0.67576005     0.12200
S1823       S  0.40537891  0.88432294  0.63817955    -0.06000
C1824       C  0.38822117  0.87698495  0.65731606    -0.09400
C1825       C  0.39279134  0.88548814  0.67677876    -0.26000
S1826       S  0.44861023  0.94057357  0.70358199    -0.03200
C1827       C  0.46390793  0.94846304  0.68301171    -0.16700
C1828       C  0.45922120  0.93841732  0.66450828    -0.14700
H1829       H  0.44082699  0.91289597  0.63529053     0.20700
H1830       H  0.41254016  0.91037419  0.70744425     0.16700
H1831       H  0.38364383  0.88293113  0.69061214     0.19200
H1832       H  0.46707950  0.94119216  0.64992070     0.12600
C1833       C  0.40063113  0.83584566  0.57491381     0.16500
C1834       C  0.41395859  0.84041958  0.55849758    -0.32600
C1835       C  0.42672250  0.82447015  0.55115177     0.20900
C1836       C  0.42600494  0.80458276  0.55936777     0.03100
C1837       C  0.41240722  0.79991675  0.57579991    -0.22300
C1838       C  0.39988856  0.81613640  0.58353686     0.12200
S1839       S  0.38534474  0.85373049  0.58678409    -0.06000
C1840       C  0.37800366  0.83483158  0.60420289    -0.09400
C1841       C  0.38673927  0.81538595  0.60035862    -0.26000
S1842       S  0.44356036  0.78775256  0.54842407    -0.03200
C1843       C  0.45208518  0.80799903  0.53308064    -0.16700
C1844       C  0.44153983  0.82650174  0.53618019    -0.14700
H1845       H  0.41482026  0.85598167  0.55213649     0.20700
H1846       H  0.41205416  0.78455124  0.58263169     0.16700
H1847       H  0.38441087  0.80172262  0.60984228     0.19200
H1848       H  0.44484929  0.84092011  0.52816402     0.12600
C1849       C  0.31068257  0.90295571  0.59231754     0.16500
C1850       C  0.29971375  0.91154037  0.57540476    -0.32600
C1851       C  0.30683526  0.93066355  0.56742788     0.20900
C1852       C  0.32379343  0.94083139  0.57631107     0.03100
C1853       C  0.33436600  0.93254145  0.59335108    -0.22300
C1854       C  0.32762223  0.91334320  0.60090454     0.12200
S1855       S  0.30641987  0.87882763  0.60285052    -0.06000
C1856       C  0.32803494  0.88279069  0.61842847    -0.09400
C1857       C  0.33745764  0.90199290  0.61588266    -0.26000
S1858       S  0.33165514  0.96250601  0.56356150    -0.03200
C1859       C  0.31212447  0.95800120  0.54571055    -0.16700
C1860       C  0.29978739  0.94070768  0.54983451    -0.14700
H1861       H  0.28686774  0.90323714  0.56819440     0.20700
H1862       H  0.34798502  0.94024364  0.59979204     0.16700
H1863       H  0.35153272  0.90698039  0.62383613     0.19200
H1864       H  0.28740912  0.93503645  0.53981855     0.12600
C1865       C  0.29793990  0.78448178  0.71920361     0.16500
C1866       C  0.31355549  0.79927261  0.71525186    -0.32600
C1867       C  0.31785516  0.80408376  0.69447465     0.20900
C1868       C  0.30723955  0.79436114  0.67836846     0.03100
C1869       C  0.29193219  0.77918980  0.68235251    -0.22300
C1870       C  0.28742661  0.77462878  0.70319517     0.12200
S1871       S  0.28972919  0.77741913  0.74323666    -0.06000
C1872       C  0.27118077  0.76103125  0.73205691    -0.09400
C1873       C  0.27247481  0.76102384  0.71031930    -0.26000
S1874       S  0.31381247  0.80334973  0.65435517    -0.03200
C1875       C  0.33118168  0.82047777  0.66602372    -0.16700
C1876       C  0.33168647  0.81889936  0.68756113    -0.14700
H1877       H  0.32164314  0.80707855  0.72785710     0.20700
H1878       H  0.28350216  0.77170307  0.66977459     0.16700
H1879       H  0.26314076  0.75156794  0.69993822     0.19200
H1880       H  0.34099211  0.82849915  0.69784650     0.12600
C1881       C  0.40421469  0.80282671  0.39806996     0.16500
C1882       C  0.41457490  0.79214413  0.41414711    -0.32600
C1883       C  0.43302538  0.80107614  0.42224631     0.20900
C1884       C  0.44075488  0.81963562  0.41445738     0.03100
C1885       C  0.43078218  0.82990617  0.39817406    -0.22300
C1886       C  0.41238354  0.82118900  0.39034154     0.12200
S1887       S  0.38047629  0.79621074  0.38741536    -0.06000
C1888       C  0.38164442  0.81871353  0.37289975    -0.09400
C1889       C  0.39979366  0.83007247  0.37578573    -0.26000
S1890       S  0.46207309  0.82911985  0.42711770    -0.03200
C1891       C  0.46102180  0.80782968  0.44318137    -0.16700
C1892       C  0.44485363  0.79400967  0.43871246    -0.14700
H1893       H  0.40816367  0.77796140  0.42054840     0.20700
H1894       H  0.43669184  0.84458417  0.39238329     0.16700
H1895       H  0.40326339  0.84472867  0.36827508     0.19200
H1896       H  0.44143093  0.78012832  0.44754686     0.12600
C1897       C  0.39719102  0.90413233  0.33345553     0.16500
C1898       C  0.41023852  0.92081226  0.33857022    -0.32600
C1899       C  0.42652422  0.92541581  0.32504644     0.20900
C1900       C  0.42946122  0.91432038  0.30680390     0.03100
C1901       C  0.41631596  0.89744324  0.30164663    -0.22300
C1902       C  0.40019646  0.89245623  0.31556825     0.12200
S1903       S  0.37783858  0.89544553  0.34901147    -0.06000
C1904       C  0.37398472  0.87514686  0.33188627    -0.09400
C1905       C  0.38666434  0.87573259  0.31445051    -0.26000
S1906       S  0.45017203  0.92298507  0.29245086    -0.03200
C1907       C  0.45502995  0.94125379  0.31162443    -0.16700
C1908       C  0.44117751  0.94062530  0.32798541    -0.14700
H1909       H  0.40809751  0.92953104  0.35283062     0.20700
H1910       H  0.41881213  0.88836905  0.28768171     0.16700
H1911       H  0.38693224  0.86389761  0.30244440     0.19200
H1912       H  0.44164521  0.95098820  0.34129145     0.12600
C1913       C  0.33328012  0.88886460  0.41495868     0.16500
C1914       C  0.33841015  0.90112978  0.43218529    -0.32600
C1915       C  0.32483557  0.91722992  0.43748469     0.20900
C1916       C  0.30657014  0.92075503  0.42649361     0.03100
C1917       C  0.30133362  0.90831100  0.40917704    -0.22300
C1918       C  0.31526917  0.89237164  0.40353440     0.12200
S1919       S  0.34886922  0.86988674  0.40536026    -0.06000
C1920       C  0.33142824  0.86670969  0.38518100    -0.09400
C1921       C  0.31399640  0.87948114  0.38638351    -0.26000
S1922       S  0.29258930  0.94163180  0.43545688    -0.03200
C1923       C  0.31195900  0.94578806  0.45370499    -0.16700
C1924       C  0.32802212  0.93149303  0.45296404    -0.14700
H1925       H  0.35276744  0.89863348  0.44072715     0.20700
H1926       H  0.28736131  0.91128763  0.40018936     0.16700
H1927       H  0.30176915  0.88016222  0.37477283     0.19200
H1928       H  0.34157565  0.93172822  0.46305700     0.12600
C1929       C  0.29622252  0.77040343  0.27274193     0.16500
C1930       C  0.31431825  0.77903854  0.28158565    -0.32600
C1931       C  0.31194134  0.79382868  0.29749195     0.20900
C1932       C  0.29241157  0.79964421  0.30446657     0.03100
C1933       C  0.27426415  0.79102776  0.29555986    -0.22300
C1934       C  0.27666843  0.77632483  0.27950212     0.12200
S1935       S  0.29588287  0.75239356  0.25318368    -0.06000
C1936       C  0.26889893  0.75304485  0.25340820    -0.09400
C1937       C  0.26102059  0.76635778  0.26867547    -0.26000
S1938       S  0.29303109  0.81754958  0.32422917    -0.03200
C1939       C  0.31997918  0.81730922  0.32308074    -0.16700
C1940       C  0.32770163  0.80398389  0.30791961    -0.14700
H1941       H  0.32962360  0.77446184  0.27624399     0.20700
H1942       H  0.25895262  0.79560801  0.30088060     0.16700
H1943       H  0.24457038  0.76880346  0.27145401     0.19200
H1944       H  0.34412410  0.80166449  0.30488871     0.12600
C1945       C  0.68156988  0.90816372  0.39078631     0.16500
C1946       C  0.67826723  0.92721358  0.40077611    -0.32600
C1947       C  0.68822872  0.93057990  0.41984292     0.20900
C1948       C  0.70161683  0.91598992  0.42836020     0.03100
C1949       C  0.70502938  0.89682008  0.41824767    -0.22300
C1950       C  0.69442933  0.89313042  0.39937578     0.12200
S1951       S  0.66861339  0.90046811  0.36900046    -0.06000
C1952       C  0.67994965  0.87637618  0.37159235    -0.09400
C1953       C  0.69368989  0.87474463  0.38824332    -0.26000
S1954       S  0.71180374  0.92326636  0.45200291    -0.03200
C1955       C  0.69723142  0.94573342  0.45048327    -0.16700
C1956       C  0.68550706  0.94747591  0.43251120    -0.14700
H1957       H  0.66761818  0.93859575  0.39437838     0.20700
H1958       H  0.71485391  0.88502950  0.42516063     0.16700
H1959       H  0.70124310  0.86046176  0.39294833     0.19200
H1960       H  0.67527976  0.96040861  0.42901980     0.12600
C1961       C  0.60636901  0.83011846  0.41321880     0.16500
C1962       C  0.59278126  0.83542925  0.42923078    -0.32600
C1963       C  0.57872667  0.82027214  0.43591147     0.20900
C1964       C  0.57846215  0.80039123  0.42749337     0.03100
C1965       C  0.59234038  0.79495439  0.41148130    -0.22300
C1966       C  0.60615685  0.81042546  0.40435900     0.12200
S1967       S  0.62310645  0.84714654  0.40205244    -0.06000
C1968       C  0.62978538  0.82795506  0.38456436    -0.09400
C1969       C  0.61978816  0.80899591  0.38791444    -0.26000
S1970       S  0.55949017  0.78461724  0.43769986    -0.03200
C1971       C  0.55174746  0.80531654  0.45299885    -0.16700
C1972       C  0.56354308  0.82316935  0.45039956    -0.14700
H1973       H  0.59269867  0.85099838  0.43575575     0.20700
H1974       H  0.59194743  0.77960741  0.40448000     0.16700
H1975       H  0.62157495  0.79528003  0.37828379     0.19200
H1976       H  0.56094059  0.83773235  0.45850915     0.12600
C1977       C  0.60199335  0.89472429  0.31269364     0.16500
C1978       C  0.59105077  0.90962396  0.30089655    -0.32600
C1979       C  0.57355629  0.91918228  0.31007461     0.20900
C1980       C  0.56741450  0.91400233  0.33001163     0.03100
C1981       C  0.57809699  0.89908812  0.34155881    -0.22300
C1982       C  0.59544658  0.88971051  0.33250710     0.12200
S1983       S  0.62410363  0.88167343  0.30519327    -0.06000
C1984       C  0.62439129  0.86970052  0.32916549    -0.09400
C1985       C  0.60800673  0.87542043  0.34185854    -0.26000
S1986       S  0.54671137  0.92760951  0.33910935    -0.03200
C1987       C  0.54589037  0.94064242  0.31585490    -0.16700
C1988       C  0.56099891  0.93446312  0.30167515    -0.14700
H1989       H  0.59610308  0.91378429  0.28545331     0.20700
H1990       H  0.57328888  0.89521247  0.35717006     0.16700
H1991       H  0.60539077  0.86954483  0.35735903     0.19200
H1992       H  0.56302645  0.94114261  0.28642280     0.12600
C1993       C  0.72386437  0.78464658  0.27402185     0.16500
C1994       C  0.71567561  0.80348657  0.28149593    -0.32600
C1995       C  0.70142467  0.80260250  0.29794904     0.20900
C1996       C  0.69539032  0.78375928  0.30640215     0.03100
C1997       C  0.70338726  0.76486440  0.29870375    -0.22300
C1998       C  0.71787496  0.76577640  0.28238700     0.12200
S1999       S  0.74201817  0.78258498  0.25489588    -0.06000
C2000       C  0.74244482  0.75580111  0.25839966    -0.09400
C2001       C  0.72808707  0.74923848  0.27328092    -0.26000
S2002       S  0.67834153  0.78613804  0.32662635    -0.03200
C2003       C  0.67935659  0.81291323  0.32384030    -0.16700
C2004       C  0.69226966  0.81928194  0.30776918    -0.14700
H2005       H  0.72051053  0.81823937  0.27500842     0.20700
H2006       H  0.69881033  0.75012854  0.30540065     0.16700
H2007       H  0.72567045  0.73314362  0.27757979     0.19200
H2008       H  0.69495570  0.83538185  0.30363391     0.12600
C2009       C  0.41018112  0.17705528  0.38846540     0.16500
C2010       C  0.42017922  0.18830816  0.40447352    -0.32600
C2011       C  0.43861860  0.17991645  0.41290790     0.20900
C2012       C  0.44678559  0.16140421  0.40538639     0.03100
C2013       C  0.43714583  0.15054001  0.38916181    -0.22300
C2014       C  0.41862624  0.15862985  0.38112303     0.12200
S2015       S  0.38661006  0.18313037  0.37740938    -0.06000
C2016       C  0.38811550  0.16027094  0.36330996    -0.09400
C2017       C  0.40624259  0.14913275  0.36663343    -0.26000
S2018       S  0.46793902  0.15253011  0.41855999    -0.03200
C2019       C  0.46600901  0.17388150  0.43462617    -0.16700
C2020       C  0.44986108  0.18738846  0.42965533    -0.14700
H2021       H  0.41345986  0.20247787  0.41062715     0.20700
H2022       H  0.44333354  0.13586143  0.38365756     0.16700
H2023       H  0.40998307  0.13443020  0.35929027     0.19200
H2024       H  0.44588582  0.20118962  0.43847379     0.12600
C2025       C  0.31914886  0.08894098  0.39606943     0.16500
C2026       C  0.30653731  0.07785103  0.41013277    -0.32600
C2027       C  0.31605041  0.06198651  0.42192721     0.20900
C2028       C  0.33705178  0.05752578  0.41962819     0.03100
C2029       C  0.34946560  0.06850387  0.40573884    -0.22300
C2030       C  0.34007026  0.08423522  0.39416245     0.12200
S2031       S  0.31122943  0.10873115  0.38002969    -0.06000
C2032       C  0.33651108  0.11053522  0.37083142    -0.09400
C2033       C  0.34998307  0.09640909  0.38002640    -0.26000
S2034       S  0.34619361  0.03837968  0.43521798    -0.03200
C2035       C  0.32156404  0.03608594  0.44542041    -0.16700
C2036       C  0.30692945  0.04953805  0.43680002    -0.14700
H2037       H  0.29016691  0.08145709  0.41185492     0.20700
H2038       H  0.36588016  0.06499519  0.40410386     0.16700
H2039       H  0.36632526  0.09457799  0.37669339     0.19200
H2040       H  0.29077705  0.05049076  0.44147030     0.12600
C2041       C  0.42295210  0.04771548  0.31915723     0.16500
C2042       C  0.40584315  0.05716779  0.32860748    -0.32600
C2043       C  0.39872104  0.07592464  0.32031931     0.20900
C2044       C  0.40791471  0.08488139  0.30310420     0.03100
C2045       C  0.42493861  0.07514316  0.29331519    -0.22300
C2046       C  0.43232133  0.05634884  0.30183171     0.12200
S2047       S  0.43478768  0.02599196  0.32837431    -0.06000
C2048       C  0.45271907  0.02820322  0.30872536    -0.09400
C2049       C  0.44941936  0.04495715  0.29552782    -0.26000
S2050       S  0.39746500  0.10858680  0.29658036    -0.03200
C2051       C  0.38098049  0.10634153  0.31755962    -0.16700
C2052       C  0.38328872  0.08799715  0.32848341    -0.14700
H2053       H  0.39882115  0.05053832  0.34234623     0.20700
H2054       H  0.43247636  0.08220795  0.28008998     0.16700
H2055       H  0.45948695  0.04911275  0.28275419     0.19200
H2056       H  0.37453099  0.08394274  0.34219268     0.12600
C2057       C  0.30249335  0.19124250  0.30327193     0.16500
C2058       C  0.28770727  0.20702227  0.30013566    -0.32600
C2059       C  0.28389589  0.21346414  0.27966094     0.20900
C2060       C  0.29450917  0.20472555  0.26314916     0.03100
C2061       C  0.30925021  0.18896556  0.26626539    -0.22300
C2062       C  0.31288476  0.18236418  0.28668002     0.12200
S2063       S  0.30969943  0.18151918  0.32685472    -0.06000
C2064       C  0.32682866  0.16503752  0.31430052    -0.09400
C2065       C  0.32673402  0.16732740  0.29282011    -0.26000
S2066       S  0.28778706  0.21459800  0.23960524    -0.03200
C2067       C  0.26946733  0.23023111  0.25181690    -0.16700
C2068       C  0.26980198  0.22826684  0.27338618    -0.14700
H2069       H  0.27949764  0.21393055  0.31307790     0.20700
H2070       H  0.31748974  0.18209362  0.25331314     0.16700
H2071       H  0.33662871  0.15905086  0.28208213     0.19200
H2072       H  0.26022580  0.23690006  0.28411929     0.12600
C2073       C  0.45086901  0.06805369  0.66151719     0.16500
C2074       C  0.44101898  0.08372931  0.65021559    -0.32600
C2075       C  0.42478371  0.09454719  0.65979251     0.20900
C2076       C  0.41845263  0.09012330  0.67981044     0.03100
C2077       C  0.42867594  0.07459628  0.69140100    -0.22300
C2078       C  0.44505512  0.06365733  0.68173286     0.12200
S2079       S  0.47013065  0.05263804  0.65192124    -0.06000
C2080       C  0.47086647  0.04010938  0.67544949    -0.09400
C2081       C  0.45670243  0.04764614  0.68994839    -0.26000
S2082       S  0.39706145  0.10419510  0.68758907    -0.03200
C2083       C  0.39669757  0.11577325  0.66343133    -0.16700
C2084       C  0.41276072  0.10938696  0.65060168    -0.14700
H2085       H  0.44549517  0.08702682  0.63437935     0.20700
H2086       H  0.42379571  0.07088949  0.70701406     0.16700
H2087       H  0.45477876  0.04150147  0.70543943     0.19200
H2088       H  0.41514565  0.11471832  0.63487250     0.12600
C2089       C  0.43040272  0.18032129  0.55467499     0.16500
C2090       C  0.41885464  0.18576922  0.57238709    -0.32600
C2091       C  0.40633908  0.17028839  0.58143318     0.20900
C2092       C  0.40515526  0.15046914  0.57290865     0.03100
C2093       C  0.41643318  0.14512505  0.55515714    -0.22300
C2094       C  0.42921561  0.16039131  0.54642452     0.12200
S2095       S  0.44779467  0.19616734  0.54224482    -0.06000
C2096       C  0.45379552  0.17551612  0.52615048    -0.09400
C2097       C  0.44250578  0.15756600  0.53010281    -0.26000
S2098       S  0.39024034  0.13349485  0.58651156    -0.03200
C2099       C  0.38566744  0.15303259  0.60432594    -0.16700
C2100       C  0.39497029  0.17194179  0.59945643    -0.14700
H2101       H  0.42008304  0.20117090  0.57918237     0.20700
H2102       H  0.41580923  0.12948724  0.54882420     0.16700
H2103       H  0.44446823  0.14293495  0.52193381     0.19200
H2104       H  0.39422656  0.18582397  0.60900297     0.12600
C2105       C  0.31414976  0.06779886  0.56428953     0.16500
C2106       C  0.31009523  0.08471328  0.57756334    -0.32600
C2107       C  0.32371439  0.08786599  0.59446184     0.20900
C2108       C  0.34014604  0.07438749  0.59823765     0.03100
C2109       C  0.34410057  0.05756425  0.58512078    -0.22300
C2110       C  0.33102737  0.05487442  0.56795184     0.12200
S2111       S  0.30008619  0.06132229  0.54250632    -0.06000
C2112       C  0.31769782  0.04155699  0.53817854    -0.09400
C2113       C  0.33326355  0.04004589  0.55297092    -0.26000
S2114       S  0.35603241  0.08150557  0.61814953    -0.03200
C2115       C  0.34112981  0.10353693  0.62098538    -0.16700
C2116       C  0.32403216  0.10462877  0.60776957    -0.14700
H2117       H  0.29736249  0.09530527  0.57447563     0.20700
H2118       H  0.35734431  0.04746251  0.58772932     0.16700
H2119       H  0.34542818  0.02837655  0.55296532     0.19200
H2120       H  0.31364124  0.11783471  0.60665922     0.12600
C2121       C  0.28961052  0.19589404  0.71271834     0.16500
C2122       C  0.30052162  0.17772725  0.70746453    -0.32600
C2123       C  0.31353327  0.17836952  0.69002796     0.20900
C2124       C  0.31544514  0.19624263  0.67824134     0.03100
C2125       C  0.30433138  0.21435513  0.68336883    -0.22300
C2126       C  0.29146564  0.21377470  0.70094928     0.12200
S2127       S  0.27403539  0.19857582  0.73391948    -0.06000
C2128       C  0.26966701  0.22427269  0.72703316    -0.09400
C2129       C  0.28014644  0.23003657  0.70902365    -0.26000
S2130       S  0.33225628  0.19388080  0.65788026    -0.03200
C2131       C  0.33687581  0.16844186  0.66524843    -0.16700
C2132       C  0.32567492  0.16241125  0.68264328    -0.14700
H2133       H  0.29918539  0.16380401  0.71676167     0.20700
H2134       H  0.30589031  0.22837054  0.67424200     0.16700
H2135       H  0.27992864  0.24554593  0.70252938     0.19200
H2136       H  0.32631285  0.14704080  0.68942637     0.12600
C2137       C  0.68073463  0.04671026  0.41187886     0.16500
C2138       C  0.67135683  0.05392562  0.39367413    -0.32600
C2139       C  0.67903010  0.07234596  0.38508588     0.20900
C2140       C  0.69563248  0.08306077  0.39391185     0.03100
C2141       C  0.70549256  0.07546056  0.41195241    -0.22300
C2142       C  0.69752758  0.05706924  0.42083509     0.12200
S2143       S  0.67194245  0.02592965  0.42556722    -0.06000
C2144       C  0.69107695  0.03089350  0.44373988    -0.09400
C2145       C  0.70381291  0.04779444  0.43912916    -0.26000
S2146       S  0.70082637  0.10642268  0.38208505    -0.03200
C2147       C  0.68012266  0.10167723  0.36550316    -0.16700
C2148       C  0.67034450  0.08273942  0.36875211    -0.14700
H2149       H  0.65797933  0.04601034  0.38700155     0.20700
H2150       H  0.71817570  0.08395535  0.41921954     0.16700
H2151       H  0.71630374  0.05347104  0.44899792     0.19200
H2152       H  0.65660704  0.07743822  0.36042262     0.12600
C2153       C  0.60870767  0.14942481  0.40719909     0.16500
C2154       C  0.59610090  0.14491857  0.42423151    -0.32600
C2155       C  0.58193315  0.16009294  0.43063850     0.20900
C2156       C  0.58066494  0.17924864  0.42091420     0.03100
C2157       C  0.59349232  0.18384827  0.40381180    -0.22300
C2158       C  0.60741111  0.16833454  0.39701097     0.12200
S2159       S  0.62549859  0.13220160  0.39642476    -0.06000
C2160       C  0.63072310  0.15017465  0.37731980    -0.09400
C2161       C  0.62018862  0.16894480  0.37981034    -0.26000
S2162       S  0.56167679  0.19511824  0.43089569    -0.03200
C2163       C  0.55513170  0.17538196  0.44781052    -0.16700
C2164       C  0.56742468  0.15779788  0.44595543    -0.14700
H2165       H  0.59682947  0.12989051  0.43176557     0.20700
H2166       H  0.59222480  0.19857282  0.39579844     0.16700
H2167       H  0.62101851  0.18187909  0.36913503     0.19200
H2168       H  0.56547358  0.14375657  0.45500402     0.12600
C2169       C  0.58898261  0.08651063  0.32911775     0.16500
C2170       C  0.57157217  0.07492488  0.33502138    -0.32600
C2171       C  0.56425144  0.05970680  0.32128046     0.20900
C2172       C  0.57340516  0.05651372  0.30208756     0.03100
C2173       C  0.59087335  0.06834305  0.29602917    -0.22300
C2174       C  0.59864286  0.08328633  0.31016558     0.12200
S2175       S  0.60095558  0.10413094  0.34477701    -0.06000
C2176       C  0.61987092  0.10698265  0.32612841    -0.09400
C2177       C  0.61642997  0.09528584  0.30821017    -0.26000
S2178       S  0.56206730  0.03680206  0.28798422    -0.03200
C2179       C  0.54534600  0.03263164  0.30850742    -0.16700
C2180       C  0.54832105  0.04608027  0.32507015    -0.14700
H2181       H  0.56444939  0.07719839  0.35007937     0.20700
H2182       H  0.59842819  0.06557706  0.28127693     0.16700
H2183       H  0.62690108  0.09471081  0.29508886     0.19200
H2184       H  0.53938511  0.04578433  0.33929737     0.12600
C2185       C  0.72273441  0.21173683  0.28780335     0.16500
C2186       C  0.71535668  0.20279810  0.30625656    -0.32600
C2187       C  0.70034270  0.18690025  0.30464822     0.20900
C2188       C  0.69282531  0.18041971  0.28550216     0.03100
C2189       C  0.70024473  0.18937296  0.26703000    -0.22300
C2190       C  0.71547470  0.20510879  0.26863899     0.12200
S2191       S  0.74127972  0.23072942  0.28650057    -0.06000
C2192       C  0.74037902  0.22926617  0.25958265    -0.09400
C2193       C  0.72519555  0.21526439  0.25249867    -0.26000
S2194       S  0.67464412  0.16095100  0.28690467    -0.03200
C2195       C  0.67719355  0.16127641  0.31367139    -0.16700
C2196       C  0.69158349  0.17595196  0.32077830    -0.14700
H2197       H  0.72125540  0.20786317  0.32122396     0.20700
H2198       H  0.69456666  0.18412373  0.25204882     0.16700
H2199       H  0.72190413  0.21223126  0.23627266     0.19200
H2200       H  0.69548034  0.17840173  0.33697472     0.12600
C2201       C  0.68812022  0.09363070  0.58603586     0.16500
C2202       C  0.70062569  0.07920191  0.57513562    -0.32600
C2203       C  0.69080850  0.06640674  0.56006050     0.20900
C2204       C  0.66963058  0.06818136  0.55610020     0.03100
C2205       C  0.65740035  0.08269688  0.56661216    -0.22300
C2206       C  0.66706755  0.09521218  0.58161892     0.12200
S2207       S  0.69614202  0.10998897  0.60576999    -0.06000
C2208       C  0.67069969  0.11867107  0.60810156    -0.09400
C2209       C  0.65721148  0.10953586  0.59380299    -0.26000
S2210       S  0.66004748  0.05112313  0.53821989    -0.03200
C2211       C  0.68475230  0.04113838  0.53559068    -0.16700
C2212       C  0.69972067  0.05086727  0.54810188    -0.14700
H2213       H  0.71710402  0.07774425  0.57851451     0.20700
H2214       H  0.64083550  0.08388799  0.56351312     0.16700
H2215       H  0.64080096  0.11294174  0.59218107     0.19200
H2216       H  0.71602200  0.04658353  0.54868672     0.12600
C2217       C  0.60425688  0.09128052  0.68134550     0.16500
C2218       C  0.58942517  0.08061140  0.69346183    -0.32600
C2219       C  0.58184771  0.06135497  0.68590888     0.20900
C2220       C  0.58925209  0.05303781  0.66747065     0.03100
C2221       C  0.60427081  0.06338706  0.65574343    -0.22300
C2222       C  0.61128647  0.08272881  0.66289947     0.12200
S2223       S  0.61415186  0.11569215  0.68633426    -0.06000
C2224       C  0.62724784  0.11434713  0.66298037    -0.09400
C2225       C  0.62443677  0.09571111  0.65246941    -0.26000
S2226       S  0.57724608  0.03075575  0.65964561    -0.03200
C2227       C  0.56154841  0.03245426  0.68116847    -0.16700
C2228       C  0.56597645  0.04935095  0.69409224    -0.14700
H2229       H  0.58343486  0.08740262  0.70762764     0.20700
H2230       H  0.60956105  0.05705087  0.64108149     0.16700
H2231       H  0.63132771  0.09192653  0.63761525     0.19200
H2232       H  0.55730215  0.05328954  0.70792603     0.12600
C2233       C  0.59469043  0.18060054  0.58720879     0.16500
C2234       C  0.58425745  0.19175177  0.57151821    -0.32600
C2235       C  0.56707070  0.18208695  0.56174229     0.20900
C2236       C  0.56044777  0.16245425  0.56774843     0.03100
C2237       C  0.57051059  0.15162366  0.58364048    -0.22300
C2238       C  0.58787237  0.16099667  0.59297512     0.12200
S2239       S  0.61690877  0.18847471  0.59988682    -0.06000
C2240       C  0.61714137  0.16484740  0.61265743    -0.09400
C2241       C  0.60049032  0.15201348  0.60754985    -0.26000
S2242       S  0.54066960  0.15239276  0.55322514    -0.03200
C2243       C  0.54121610  0.17467535  0.53850389    -0.16700
C2244       C  0.55580596  0.18939093  0.54499976    -0.14700
H2245       H  0.58975411  0.20689688  0.56663199     0.20700
H2246       H  0.56553084  0.13612454  0.58795858     0.16700
H2247       H  0.59777499  0.13668500  0.61388452     0.19200
H2248       H  0.55873149  0.20403653  0.53727680     0.12600
C2249       C  0.69331825  0.20470060  0.68185173     0.16500
C2250       C  0.70047332  0.22351426  0.69055924    -0.32600
C2251       C  0.71591225  0.22253097  0.70605302     0.20900
C2252       C  0.72374474  0.20363658  0.71267077     0.03100
C2253       C  0.71657606  0.18478438  0.70397120    -0.22300
C2254       C  0.70123506  0.18577167  0.68833521     0.12200
S2255       S  0.67456817  0.20265717  0.66307261    -0.06000
C2256       C  0.67716207  0.17584958  0.66377623    -0.09400
C2257       C  0.69217834  0.16921653  0.67795035    -0.26000
S2258       S  0.74251549  0.20585633  0.73144585    -0.03200
C2259       C  0.74053531  0.23277840  0.73006547    -0.16700
C2260       C  0.72520214  0.23915033  0.71604037    -0.14700
H2261       H  0.69431898  0.23830407  0.68540529     0.20700
H2262       H  0.72276305  0.17000051  0.70910382     0.16700
H2263       H  0.69593170  0.15305498  0.68079944     0.19200
H2264       H  0.72140687  0.25526370  0.71298045     0.12600
C2265       C  0.45014538  0.66424592  0.91287509     0.16500
C2266       C  0.43965108  0.65239154  0.89790620    -0.32600
C2267       C  0.42280987  0.66157268  0.88766492     0.20900
C2268       C  0.41690934  0.68192411  0.89161851     0.03100
C2269       C  0.42787289  0.69410100  0.90629079    -0.22300
C2270       C  0.44450241  0.68466167  0.91704599     0.12200
S2271       S  0.46926381  0.65472799  0.92844055    -0.06000
C2272       C  0.46985483  0.67837488  0.94107245    -0.09400
C2273       C  0.45603338  0.69303360  0.93319094    -0.26000
S2274       S  0.39477253  0.68928432  0.87857232    -0.03200
C2275       C  0.39328359  0.66443557  0.86830608    -0.16700
C2276       C  0.40960111  0.65164451  0.87419834    -0.14700
H2277       H  0.44381284  0.63629810  0.89507891     0.20700
H2278       H  0.42307673  0.70986384  0.90982268     0.16700
H2279       H  0.45386297  0.70850990  0.93952012     0.19200
H2280       H  0.41145767  0.63557231  0.86947166     0.12600
C2281       C  0.39691526  0.57437263  0.82923046     0.16500
C2282       C  0.40720831  0.55580353  0.83389927    -0.32600
C2283       C  0.42375626  0.54989551  0.82112457     0.20900
C2284       C  0.42938404  0.56150094  0.80393393     0.03100
C2285       C  0.41877289  0.57995756  0.79900753    -0.22300
C2286       C  0.40259095  0.58627136  0.81223765     0.12200
S2287       S  0.37851321  0.58542321  0.84461794    -0.06000
C2288       C  0.37864242  0.60660849  0.82833776    -0.09400
C2289       C  0.39188018  0.60479039  0.81147803    -0.26000
S2290       S  0.45085684  0.55221244  0.79125719    -0.03200
C2291       C  0.45254938  0.53299108  0.80976818    -0.16700
C2292       C  0.43696548  0.53358135  0.82454112    -0.14700
H2293       H  0.40319415  0.54690063  0.84755945     0.20700
H2294       H  0.42355941  0.58946447  0.78602993     0.16700
H2295       H  0.39462297  0.61694257  0.80021962     0.19200
H2296       H  0.43583430  0.52306481  0.83759009     0.12600
C2297       C  0.33965884  0.59917065  0.91139068     0.16500
C2298       C  0.34400825  0.58717460  0.92892943    -0.32600
C2299       C  0.33117882  0.57000001  0.93275636     0.20900
C2300       C  0.31439970  0.56514906  0.91997531     0.03100
C2301       C  0.31004987  0.57718338  0.90230259    -0.22300
C2302       C  0.32316631  0.59425528  0.89825211     0.12200
S2303       S  0.35464470  0.61941852  0.90334888    -0.06000
C2304       C  0.33893695  0.62118377  0.88169515    -0.09400
C2305       C  0.32254807  0.60703583  0.88116009    -0.26000
S2306       S  0.30072625  0.54358628  0.92761319    -0.03200
C2307       C  0.31813196  0.54099616  0.94790155    -0.16700
C2308       C  0.33352757  0.55610425  0.94860941    -0.14700
H2309       H  0.35718273  0.59077776  0.93889838     0.20700
H2310       H  0.29728732  0.57318314  0.89197335     0.16700
H2311       H  0.31176729  0.60521956  0.86830234     0.19200
H2312       H  0.34579395  0.55690189  0.96019936     0.12600
C2313       C  0.32017142  0.69337938  0.79216053     0.16500
C2314       C  0.31660446  0.70742782  0.77588655    -0.32600
C2315       C  0.29612783  0.71449968  0.77271089     0.20900
C2316       C  0.27991896  0.70784008  0.78513079     0.03100
C2317       C  0.28347679  0.69374852  0.80140453    -0.22300
C2318       C  0.30398778  0.68672515  0.80464080     0.12200
S2319       S  0.34386742  0.68312685  0.79859700    -0.06000
C2320       C  0.33206324  0.66969733  0.81857194    -0.09400
C2321       C  0.31064203  0.67317117  0.81977473    -0.26000
S2322       S  0.25628457  0.71831254  0.77870778    -0.03200
C2323       C  0.26828853  0.73237557  0.75917136    -0.16700
C2324       C  0.28962000  0.72826711  0.75775911    -0.14700
H2325       H  0.32926843  0.71269399  0.76617085     0.20700
H2326       H  0.27082060  0.68854764  0.81116939     0.16700
H2327       H  0.30027769  0.66636788  0.83104682     0.19200
H2328       H  0.29999913  0.73477482  0.74630951     0.12600
C2329       C  0.67115766  0.57965043  0.90196720     0.16500
C2330       C  0.66677863  0.56426077  0.91650432    -0.32600
C2331       C  0.68353854  0.55451624  0.92629160     0.20900
C2332       C  0.70400785  0.55965725  0.92190882     0.03100
C2333       C  0.70847481  0.57519907  0.90703985    -0.22300
C2334       C  0.69144811  0.58515835  0.89717665     0.12200
S2335       S  0.65252061  0.59322702  0.88919603    -0.06000
C2336       C  0.67184427  0.60709075  0.87689089    -0.09400
C2337       C  0.69198727  0.60097884  0.88261006    -0.26000
S2338       S  0.72181460  0.54580673  0.93649842    -0.03200
C2339       C  0.70118927  0.53322139  0.94841297    -0.16700
C2340       C  0.68186941  0.53956771  0.94115956    -0.14700
H2341       H  0.65083586  0.56017977  0.92022652     0.20700
H2342       H  0.72439846  0.57947592  0.90350942     0.16700
H2343       H  0.70619061  0.60785212  0.87674408     0.19200
H2344       H  0.66707500  0.53375010  0.94677218     0.12600
C2345       C  0.60505511  0.68130763  0.90026812     0.16500
C2346       C  0.58866885  0.69259482  0.90941140    -0.32600
C2347       C  0.58050473  0.68511639  0.92823669     0.20900
C2348       C  0.58857460  0.66742780  0.93754185     0.03100
C2349       C  0.60507869  0.65650168  0.92868203    -0.22300
C2350       C  0.61290659  0.66369588  0.90983868     0.12200
S2351       S  0.61607114  0.68630696  0.87656348    -0.06000
C2352       C  0.63091671  0.66415916  0.87965763    -0.09400
C2353       C  0.62771631  0.65396406  0.89822960    -0.26000
S2354       S  0.57576877  0.65954235  0.95914570    -0.03200
C2355       C  0.55912297  0.68019339  0.95584519    -0.16700
C2356       C  0.56360119  0.69276322  0.93893045    -0.14700
H2357       H  0.58209828  0.70609617  0.90184340     0.20700
H2358       H  0.61101944  0.64244544  0.93576854     0.16700
H2359       H  0.63532825  0.63963560  0.90272189     0.19200
H2360       H  0.55436256  0.70598006  0.93411608     0.12600
C2361       C  0.56165330  0.57412581  0.83059565     0.16500
C2362       C  0.57221129  0.58997207  0.84122268    -0.32600
C2363       C  0.58999705  0.59835500  0.83195049     0.20900
C2364       C  0.59681899  0.59171089  0.81267551     0.03100
C2365       C  0.58582594  0.57618644  0.80167581    -0.22300
C2366       C  0.56819860  0.56738589  0.81121803     0.12200
S2367       S  0.54129286  0.56050632  0.84056912    -0.06000
C2368       C  0.54144485  0.54531884  0.81850193    -0.09400
C2369       C  0.55639532  0.55092310  0.80401343    -0.26000
S2370       S  0.61988891  0.60286826  0.80516389    -0.03200
C2371       C  0.62046947  0.61613492  0.82853020    -0.16700
C2372       C  0.60320853  0.61249425  0.84088752    -0.14700
H2373       H  0.56732067  0.59489697  0.85654793     0.20700
H2374       H  0.59127251  0.57059825  0.78678317     0.16700
H2375       H  0.55912835  0.54278111  0.78953678     0.19200
H2376       H  0.60055999  0.61935997  0.85601100     0.12600
C2377       C  0.71235417  0.68074703  0.80440899     0.16500
C2378       C  0.73106387  0.68906716  0.79680059    -0.32600
C2379       C  0.72981827  0.70445248  0.78144413     0.20900
C2380       C  0.71078344  0.71115242  0.77388647     0.03100
C2381       C  0.69199989  0.70303652  0.78168979    -0.22300
C2382       C  0.69325478  0.68770318  0.79717834     0.12200
S2383       S  0.71069355  0.66197486  0.82301239    -0.06000
C2384       C  0.68384841  0.66352568  0.82148031    -0.09400
C2385       C  0.67686449  0.67799563  0.80697834    -0.26000
S2386       S  0.71276818  0.72950757  0.75489406    -0.03200
C2387       C  0.73976967  0.72798089  0.75662030    -0.16700
C2388       C  0.74632185  0.71432600  0.77209427    -0.14700
H2389       H  0.74598289  0.68372332  0.80258094     0.20700
H2390       H  0.67708593  0.70839988  0.77591092     0.16700
H2391       H  0.66060361  0.68131834  0.80391319     0.19200
H2392       H  0.76248589  0.71151962  0.77606338     0.12600
C2393       C  0.70373307  0.41644685  0.92813295     0.16500
C2394       C  0.70729192  0.40428209  0.91020513    -0.32600
C2395       C  0.69204928  0.38939491  0.90456864     0.20900
C2396       C  0.67446318  0.38651513  0.91665923     0.03100
C2397       C  0.67103839  0.39843932  0.93451737    -0.22300
C2398       C  0.68583091  0.41361719  0.93974486     0.12200
S2399       S  0.71929177  0.43641016  0.93706064    -0.06000
C2400       C  0.70102135  0.44125194  0.95610141    -0.09400
C2401       C  0.68417168  0.42773999  0.95562314    -0.26000
S2402       S  0.65703150  0.36906052  0.90691866    -0.03200
C2403       C  0.67301849  0.36577408  0.88573748    -0.16700
C2404       C  0.69142687  0.37728154  0.88676069    -0.14700
H2405       H  0.72092677  0.40682302  0.90069282     0.20700
H2406       H  0.65694733  0.39652461  0.94352940     0.16700
H2407       H  0.67105646  0.42851366  0.96613324     0.19200
H2408       H  0.70297105  0.37781622  0.87457258     0.12600
C2409       C  0.60413950  0.40366537  0.81631852     0.16500
C2410       C  0.58958769  0.41525560  0.80475233    -0.32600
C2411       C  0.57796594  0.43053360  0.81533753     0.20900
C2412       C  0.58095397  0.43418423  0.83636777     0.03100
C2413       C  0.59581107  0.42308506  0.84768332    -0.22300
C2414       C  0.60715297  0.40775846  0.83721914     0.12200
S2415       S  0.61844170  0.38298855  0.80728837    -0.06000
C2416       C  0.62818266  0.37970566  0.83211775    -0.09400
C2417       C  0.62113073  0.39454084  0.84614545    -0.26000
S2418       S  0.56461267  0.45215273  0.84688911    -0.03200
C2419       C  0.55352138  0.45513377  0.82271642    -0.16700
C2420       C  0.56227537  0.44273438  0.80731579    -0.14700
H2421       H  0.58695462  0.41205426  0.78843798     0.20700
H2422       H  0.59793997  0.42578618  0.86416546     0.16700
H2423       H  0.62544649  0.39555347  0.86235104     0.19200
H2424       H  0.55706526  0.44225254  0.79131468     0.12600
C2425       C  0.57293793  0.29510028  0.92254010     0.16500
C2426       C  0.59074789  0.29122975  0.91046305    -0.32600
C2427       C  0.59687409  0.30666206  0.89627563     0.20900
C2428       C  0.58544167  0.32480891  0.89397719     0.03100
C2429       C  0.56761911  0.32851041  0.90576143    -0.22300
C2430       C  0.56186611  0.31345209  0.92023291     0.12200
S2431       S  0.56358547  0.27931493  0.94178118    -0.06000
C2432       C  0.54504397  0.29801877  0.94695317    -0.09400
C2433       C  0.54597659  0.31521671  0.93414963    -0.26000
S2434       S  0.59587429  0.34236437  0.87733834    -0.03200
C2435       C  0.61629793  0.32548108  0.87359728    -0.16700
C2436       C  0.61461498  0.30683494  0.88432200    -0.14700
H2437       H  0.59981824  0.27719425  0.91255362     0.20700
H2438       H  0.55904917  0.34294434  0.90429117     0.16700
H2439       H  0.53582833  0.32862318  0.93531290     0.19200
H2440       H  0.62627609  0.29468048  0.88431031     0.12600
C2441       C  0.72212571  0.29146081  0.77236232     0.16500
C2442       C  0.71509832  0.30988825  0.78189998    -0.32600
C2443       C  0.69965343  0.30818747  0.79722866     0.20900
C2444       C  0.69134075  0.28900420  0.80241738     0.03100
C2445       C  0.69832478  0.27061726  0.79284309    -0.22300
C2446       C  0.71405309  0.27228729  0.77785070     0.12200
S2447       S  0.74137721  0.29008329  0.75422219    -0.06000
C2448       C  0.73953830  0.26311003  0.75459759    -0.09400
C2449       C  0.72368836  0.25611066  0.76762913    -0.26000
S2450       S  0.67275801  0.29013165  0.82121727    -0.03200
C2451       C  0.67612361  0.31687096  0.82250505    -0.16700
C2452       C  0.69114113  0.32418208  0.80877010    -0.14700
H2453       H  0.72165346  0.32485314  0.77780548     0.20700
H2454       H  0.69201479  0.25561126  0.79716873     0.16700
H2455       H  0.71994666  0.23985989  0.77005361     0.19200
H2456       H  0.69546962  0.34039571  0.80722321     0.12600
C2457       C  0.41365048  0.39180881  0.80927241     0.16500
C2458       C  0.42261609  0.40882948  0.79881793    -0.32600
C2459       C  0.43996749  0.41865394  0.80817505     0.20900
C2460       C  0.44792947  0.41163190  0.82693187     0.03100
C2461       C  0.43937614  0.39447189  0.83696663    -0.22300
C2462       C  0.42210165  0.38487985  0.82780640     0.12200
S2463       S  0.39134728  0.37880843  0.80206319    -0.06000
C2464       C  0.39349253  0.36432695  0.82452153    -0.09400
C2465       C  0.41094842  0.36903035  0.83632570    -0.26000
S2466       S  0.46764800  0.42618765  0.83696416    -0.03200
C2467       C  0.46559587  0.44205910  0.81567293    -0.16700
C2468       C  0.45036374  0.43615103  0.80138305    -0.14700
H2469       H  0.41596921  0.41456823  0.78447038     0.20700
H2470       H  0.44548055  0.38927029  0.85176567     0.16700
H2471       H  0.41501131  0.36179103  0.85092965     0.19200
H2472       H  0.44653414  0.44465307  0.78740967     0.12600
C2473       C  0.31496462  0.42162131  0.91792085     0.16500
C2474       C  0.31016791  0.40442982  0.90504889    -0.32600
C2475       C  0.32650284  0.39558984  0.89340008     0.20900
C2476       C  0.34648633  0.40377420  0.89444116     0.03100
C2477       C  0.35119022  0.42088581  0.90704623    -0.22300
C2478       C  0.33508771  0.42945550  0.91879627     0.12200
S2479       S  0.29798420  0.43422554  0.93422989    -0.06000
C2480       C  0.31845088  0.44984251  0.94237178    -0.09400
C2481       C  0.33714635  0.44550530  0.93262342    -0.26000
S2482       S  0.36438517  0.39090928  0.88000671    -0.03200
C2483       C  0.34508101  0.37377431  0.87238985    -0.16700
C2484       C  0.32553088  0.37832787  0.88057350    -0.14700
H2485       H  0.29456057  0.39800194  0.90445922     0.20700
H2486       H  0.36691625  0.42701167  0.90799383     0.16700
H2487       H  0.35174233  0.45343101  0.93582915     0.19200
H2488       H  0.31155746  0.36924836  0.87779358     0.12600
C2489       C  0.40983430  0.29927472  0.89963281     0.16500
C2490       C  0.42553648  0.28783800  0.90980097    -0.32600
C2491       C  0.43366513  0.29599534  0.92851421     0.20900
C2492       C  0.42623466  0.31451861  0.93673449     0.03100
C2493       C  0.41037863  0.32562703  0.92686112    -0.22300
C2494       C  0.40257409  0.31770977  0.90813187     0.12200
S2495       S  0.39895171  0.29334084  0.87590731    -0.06000
C2496       C  0.38496163  0.31620738  0.87749978    -0.09400
C2497       C  0.38831592  0.32731544  0.89567024    -0.26000
S2498       S  0.43892455  0.32292784  0.95844305    -0.03200
C2499       C  0.45460856  0.30131578  0.95669961    -0.16700
C2500       C  0.44990662  0.28813158  0.94015106    -0.14700
H2501       H  0.43161388  0.27363231  0.90309914     0.20700
H2502       H  0.40489114  0.34027623  0.93312627     0.16700
H2503       H  0.38113775  0.34210900  0.89934097     0.19200
H2504       H  0.45852021  0.27418619  0.93629286     0.12600
C2505       C  0.30251327  0.30061590  0.80029510     0.16500
C2506       C  0.28366742  0.29398355  0.79137273    -0.32600
C2507       C  0.28442963  0.27807260  0.77644812     0.20900
C2508       C  0.30310367  0.26923633  0.77047531     0.03100
C2509       C  0.32204153  0.27584095  0.77944942    -0.22300
C2510       C  0.32126760  0.29170020  0.79456257     0.12200
S2511       S  0.30470325  0.31958618  0.81877081    -0.06000
C2512       C  0.33131465  0.31560259  0.81909072    -0.09400
C2513       C  0.33783497  0.30018469  0.80532511    -0.26000
S2514       S  0.30040475  0.24992335  0.75230804    -0.03200
C2515       C  0.27357411  0.25356602  0.75270806    -0.16700
C2516       C  0.26765515  0.26919913  0.76656591    -0.14700
H2517       H  0.26899176  0.30083759  0.79599021     0.20700
H2518       H  0.33668412  0.26882910  0.77497656     0.16700
H2519       H  0.35390067  0.29550635  0.80330323     0.19200
H2520       H  0.25164669  0.27353663  0.76959077     0.12600
C2521       C  0.42687401  0.43778075  0.16416759     0.16500
C2522       C  0.41197590  0.42747225  0.15203564    -0.32600
C2523       C  0.40186963  0.41030873  0.16068934     0.20900
C2524       C  0.40596656  0.40378750  0.18075036     0.03100
C2525       C  0.42065108  0.41448821  0.19318836    -0.22300
C2526       C  0.43117633  0.43155318  0.18431665     0.12200
S2527       S  0.44203179  0.45757276  0.15539140    -0.06000
C2528       C  0.45467526  0.45766925  0.17900831    -0.09400
C2529       C  0.44709344  0.44315949  0.19308611    -0.26000
S2530       S  0.39279519  0.38150959  0.18747923    -0.03200
C2531       C  0.38221574  0.38090316  0.16277202    -0.16700
C2532       C  0.38818197  0.39753522  0.15051189    -0.14700
H2533       H  0.40897340  0.43214387  0.13616836     0.20700
H2534       H  0.42425171  0.40929933  0.20875674     0.16700
H2535       H  0.45343768  0.44065611  0.20846753     0.19200
H2536       H  0.38320872  0.40001209  0.13463982     0.12600
C2537       C  0.43626379  0.29475852  0.06999920     0.16500
C2538       C  0.41782202  0.29174015  0.08138395    -0.32600
C2539       C  0.41239479  0.30709487  0.09605306     0.20900
C2540       C  0.42512034  0.32425328  0.09952380     0.03100
C2541       C  0.44356628  0.32705234  0.08848617    -0.22300
C2542       C  0.44860990  0.31216948  0.07349509     0.12200
S2543       S  0.44484809  0.27927618  0.05004632    -0.06000
C2544       C  0.46475130  0.29694784  0.04616056    -0.09400
C2545       C  0.46486118  0.31348050  0.05997063    -0.26000
S2546       S  0.41546557  0.34202718  0.11646585    -0.03200
C2547       C  0.39359873  0.32666879  0.11874876    -0.16700
C2548       C  0.39423168  0.30826585  0.10733174    -0.14700
H2549       H  0.40774396  0.27852347  0.07833091     0.20700
H2550       H  0.45311729  0.34080273  0.09081720     0.16700
H2551       H  0.47588521  0.32627757  0.05964936     0.19200
H2552       H  0.38161987  0.29707211  0.10634639     0.12600
C2553       C  0.34340721  0.39463273  0.07570741     0.16500
C2554       C  0.34803457  0.40681572  0.05849702    -0.32600
C2555       C  0.33263030  0.42025674  0.05128185     0.20900
C2556       C  0.31318623  0.42143175  0.06048939     0.03100
C2557       C  0.30844592  0.40902561  0.07782698    -0.22300
C2558       C  0.32413251  0.39565109  0.08530118     0.12200
S2559       S  0.36077812  0.37846409  0.08713125    -0.06000
C2560       C  0.34225103  0.37296725  0.10553392    -0.09400
C2561       C  0.32328404  0.38299889  0.10250008    -0.26000
S2562       S  0.29703799  0.43947096  0.04927069    -0.03200
C2563       C  0.31702763  0.44550292  0.03244546    -0.16700
C2564       C  0.33489758  0.43391147  0.03534081    -0.14700
H2565       H  0.36325127  0.40619230  0.05129369     0.20700
H2566       H  0.29343632  0.41005997  0.08537251     0.16700
H2567       H  0.30999266  0.38177240  0.11271483     0.19200
H2568       H  0.34907807  0.43565812  0.02643488     0.12600
C2569       C  0.30332782  0.29610644  0.17428467     0.16500
C2570       C  0.28699543  0.28184044  0.17754575    -0.32600
C2571       C  0.28385766  0.27460863  0.19788494     0.20900
C2572       C  0.29654712  0.28122527  0.21405571     0.03100
C2573       C  0.31297956  0.29517121  0.21075402    -0.22300
C2574       C  0.31594762  0.30255689  0.19057958     0.12200
S2575       S  0.30971720  0.30701263  0.15099642    -0.06000
C2576       C  0.32924100  0.32093443  0.16349095    -0.09400
C2577       C  0.33086870  0.31653954  0.18452523    -0.26000
S2578       S  0.29007842  0.27140063  0.23758556    -0.03200
C2579       C  0.26958980  0.25806081  0.22590094    -0.16700
C2580       C  0.26856622  0.26107860  0.20445423    -0.14700
H2581       H  0.27705174  0.27679511  0.16485931     0.20700
H2582       H  0.32285193  0.30030307  0.22346577     0.16700
H2583       H  0.34253398  0.32289292  0.19494493     0.19200
H2584       H  0.25725284  0.25408176  0.19408799     0.12600
C2585       C  0.58662320  0.65807886  0.09746642     0.16500
C2586       C  0.56861943  0.65437859  0.08573575    -0.32600
C2587       C  0.56252605  0.66961455  0.07152804     0.20900
C2588       C  0.57345233  0.68810786  0.06939022     0.03100
C2589       C  0.59134584  0.69204229  0.08154144    -0.22300
C2590       C  0.59780186  0.67645340  0.09546668     0.12200
S2591       S  0.59755013  0.64036258  0.11373282    -0.06000
C2592       C  0.61774201  0.65758964  0.11788395    -0.09400
C2593       C  0.61565715  0.67637901  0.10742526    -0.26000
S2594       S  0.56403672  0.70380169  0.04999211    -0.03200
C2595       C  0.54564696  0.68487608  0.04451910    -0.16700
C2596       C  0.54662540  0.66774960  0.05747506    -0.14700
H2597       H  0.56021482  0.63979145  0.08696969     0.20700
H2598       H  0.60029709  0.70620827  0.07961984     0.16700
H2599       H  0.62706221  0.68882530  0.10772597     0.19200
H2600       H  0.53671569  0.65412676  0.05609975     0.12600
C2601       C  0.70422814  0.56575095  0.06594591     0.16500
C2602       C  0.70781597  0.57798796  0.08387208    -0.32600
C2603       C  0.69256298  0.59280066  0.08936957     0.20900
C2604       C  0.67488092  0.59546038  0.07722372     0.03100
C2605       C  0.67146310  0.58350991  0.05934133    -0.22300
C2606       C  0.68631674  0.56848454  0.05418840     0.12200
S2607       S  0.71977320  0.54584314  0.05714167    -0.06000
C2608       C  0.70151576  0.54095058  0.03790075    -0.09400
C2609       C  0.68468898  0.55441407  0.03824509    -0.26000
S2610       S  0.65745194  0.61286237  0.08679715    -0.03200
C2611       C  0.67370571  0.61661882  0.10783574    -0.16700
C2612       C  0.69209830  0.60516973  0.10699891    -0.14700
H2613       H  0.72150329  0.57559730  0.09345137     0.20700
H2614       H  0.65736060  0.58532263  0.05021960     0.16700
H2615       H  0.67156889  0.55360862  0.02762264     0.19200
H2616       H  0.70382759  0.60499776  0.11912611     0.12600
C2617       C  0.58054288  0.56365470  0.19249906     0.16500
C2618       C  0.59136498  0.58254461  0.19536778    -0.32600
C2619       C  0.60745710  0.58729740  0.18135818     0.20900
C2620       C  0.61277520  0.57357300  0.16558446     0.03100
C2621       C  0.60226800  0.55465255  0.16296536    -0.22300
C2622       C  0.58589111  0.55021655  0.17651318     0.12200
S2623       S  0.55910433  0.55579947  0.20626627    -0.06000
C2624       C  0.55713030  0.53462579  0.18983164    -0.09400
C2625       C  0.57256736  0.53364112  0.17491821    -0.26000
S2626       S  0.63119666  0.58265453  0.14900215    -0.03200
C2627       C  0.63169437  0.60545270  0.16310616    -0.16700
C2628       C  0.61853566  0.60565599  0.18016945    -0.14700
H2629       H  0.58684533  0.59343993  0.20738439     0.20700
H2630       H  0.60603912  0.54427120  0.15024307     0.16700
H2631       H  0.57342865  0.52184362  0.16289217     0.19200
H2632       H  0.61621195  0.61895543  0.19026156     0.12600
C2633       C  0.69405912  0.69759411  0.18718577     0.16500
C2634       C  0.70074032  0.71621504  0.19662774    -0.32600
C2635       C  0.71697642  0.71511153  0.21127639     0.20900
C2636       C  0.72596024  0.69628623  0.21648860     0.03100
C2637       C  0.71926724  0.67762541  0.20704355    -0.22300
C2638       C  0.70318589  0.67874948  0.19217114     0.12200
S2639       S  0.67468603  0.69572414  0.16903186    -0.06000
C2640       C  0.67874853  0.66911727  0.16788045    -0.09400
C2641       C  0.69459333  0.66241304  0.18108734    -0.26000
S2642       S  0.74566069  0.69840321  0.23432905    -0.03200
C2643       C  0.74255789  0.72522917  0.23430410    -0.16700
C2644       C  0.72618200  0.73160319  0.22149007    -0.14700
H2645       H  0.69372475  0.73095656  0.19256816     0.20700
H2646       H  0.72642769  0.66291556  0.21096080     0.16700
H2647       H  0.69935562  0.64634696  0.18267569     0.19200
H2648       H  0.72171544  0.74767852  0.21925520     0.12600
C2649       C  0.69645116  0.39540337  0.09375325     0.16500
C2650       C  0.70908961  0.40492931  0.07851694    -0.32600
C2651       C  0.70165763  0.42336351  0.06909096     0.20900
C2652       C  0.68268933  0.43180129  0.07493755     0.03100
C2653       C  0.67040099  0.42256434  0.09019105    -0.22300
C2654       C  0.67759380  0.40422026  0.09926172     0.12200
S2655       S  0.70133730  0.37223645  0.10626456    -0.06000
C2656       C  0.67748461  0.37455014  0.11851962    -0.09400
C2657       C  0.66688612  0.39257847  0.11338366    -0.26000
S2658       S  0.67524825  0.45305563  0.06125897    -0.03200
C2659       C  0.69779019  0.45100213  0.04702487    -0.16700
C2660       C  0.71064802  0.43456878  0.05304687    -0.14700
H2661       H  0.72369221  0.39799481  0.07382310     0.20700
H2662       H  0.65543892  0.42908427  0.09435814     0.16700
H2663       H  0.65172121  0.39683627  0.11932679     0.19200
H2664       H  0.72512577  0.43048004  0.04551958     0.12600
C2665       C  0.57198089  0.41955435  0.18634997     0.16500
C2666       C  0.58828400  0.40584050  0.19148984    -0.32600
C2667       C  0.59694258  0.39381152  0.17538356     0.20900
C2668       C  0.58936371  0.39522330  0.15526539     0.03100
C2669       C  0.57306050  0.40868492  0.15020400    -0.22300
C2670       C  0.56473648  0.42091005  0.16610374     0.12200
S2671       S  0.56001272  0.43643872  0.20312872    -0.06000
C2672       C  0.54550036  0.44557121  0.18246215    -0.09400
C2673       C  0.54963165  0.43571348  0.16379124    -0.26000
S2674       S  0.60209817  0.38023881  0.13770647    -0.03200
C2675       C  0.61836014  0.37197028  0.15737323    -0.16700
C2676       C  0.61358258  0.38031191  0.17675919    -0.14700
H2677       H  0.59426708  0.40495822  0.20720292     0.20700
H2678       H  0.56744765  0.40996673  0.13437432     0.16700
H2679       H  0.54227288  0.43950506  0.14912168     0.19200
H2680       H  0.62214862  0.37721930  0.19091819     0.12600
C2681       C  0.57944155  0.29225889  0.06465997     0.16500
C2682       C  0.59112593  0.28897278  0.08294514    -0.32600
C2683       C  0.60564078  0.30445061  0.08887334     0.20900
C2684       C  0.60861455  0.32199159  0.07677550     0.03100
C2685       C  0.59727272  0.32508741  0.05853719    -0.22300
C2686       C  0.58251405  0.31005438  0.05297750     0.12200
S2687       S  0.55957972  0.27668800  0.05549719    -0.06000
C2688       C  0.55519016  0.29486034  0.03629601    -0.09400
C2689       C  0.56881620  0.31156897  0.03681128    -0.26000
S2690       S  0.62560704  0.33967105  0.08676233    -0.03200
C2691       C  0.62873074  0.32377155  0.10799208    -0.16700
C2692       C  0.61738646  0.30527744  0.10687607    -0.14700
H2693       H  0.58845958  0.27541065  0.09250441     0.20700
H2694       H  0.59926535  0.33912286  0.04947754     0.16700
H2695       H  0.56817474  0.32470160  0.02632505     0.19200
H2696       H  0.61691861  0.29365228  0.11897703     0.12600
C2697       C  0.69028202  0.29959138  0.20218414     0.16500
C2698       C  0.69841965  0.29210278  0.22112317    -0.32600
C2699       C  0.71456101  0.27726179  0.22028679     0.20900
C2700       C  0.72172262  0.26992466  0.20141560     0.03100
C2701       C  0.71350623  0.27722362  0.18257678    -0.22300
C2702       C  0.69784493  0.29239540  0.18339562     0.12200
S2703       S  0.67155713  0.31840340  0.19964050    -0.06000
C2704       C  0.67425083  0.31695321  0.17290903    -0.09400
C2705       C  0.68880099  0.30221548  0.16668160    -0.26000
S2706       S  0.74121752  0.25214765  0.20341258    -0.03200
C2707       C  0.74071837  0.25478085  0.23024996    -0.16700
C2708       C  0.72525847  0.26860721  0.23684731    -0.14700
H2709       H  0.69274777  0.29793325  0.23582841     0.20700
H2710       H  0.71941356  0.27162475  0.16787400     0.16700
H2711       H  0.69282846  0.29913175  0.15066827     0.19200
H2712       H  0.72207463  0.27214679  0.25296128     0.12600
C2713       C  0.40662954  0.65552927  0.07446212     0.16500
C2714       C  0.41849569  0.65139171  0.05687952    -0.32600
C2715       C  0.43098432  0.66742355  0.04929371     0.20900
C2716       C  0.43143383  0.68699254  0.05842418     0.03100
C2717       C  0.41911454  0.69131019  0.07591053    -0.22300
C2718       C  0.40684014  0.67500993  0.08381853     0.12200
S2719       S  0.39209481  0.63735108  0.08680553    -0.06000
C2720       C  0.38614795  0.65597376  0.10506681    -0.09400
C2721       C  0.39483057  0.67543721  0.10142081    -0.26000
S2722       S  0.44913841  0.70365788  0.04747293    -0.03200
C2723       C  0.45613962  0.68371129  0.03092147    -0.16700
C2724       C  0.44488907  0.66553801  0.03352210    -0.14700
H2725       H  0.41862229  0.63602956  0.04987321     0.20700
H2726       H  0.41965747  0.70639873  0.08344325     0.16700
H2727       H  0.39312600  0.68885360  0.11148239     0.19200
H2728       H  0.44745417  0.65124781  0.02492017     0.12600
C2729       C  0.42867181  0.60348418  0.16735618     0.16500
C2730       C  0.44763580  0.59322490  0.16452356    -0.32600
C2731       C  0.45191895  0.57617414  0.17723277     0.20900
C2732       C  0.43841801  0.57014101  0.19284964     0.03100
C2733       C  0.41952482  0.58074069  0.19599895    -0.22300
C2734       C  0.41477257  0.59731011  0.18258903     0.12200
S2735       S  0.41945490  0.62209677  0.15110418    -0.06000
C2736       C  0.39625414  0.62125040  0.16436343    -0.09400
C2737       C  0.39607640  0.60773139  0.18111138    -0.26000
S2738       S  0.44604238  0.54808626  0.20561155    -0.03200
C2739       C  0.46705865  0.54664327  0.18907774    -0.16700
C2740       C  0.46829059  0.56276738  0.17497629    -0.14700
H2741       H  0.45803115  0.59754091  0.15204047     0.20700
H2742       H  0.40850999  0.57554639  0.20757626     0.16700
H2743       H  0.38249734  0.60439255  0.19045563     0.19200
H2744       H  0.48014022  0.56415631  0.16312811     0.12600
C2745       C  0.31428222  0.55983395  0.06662024     0.16500
C2746       C  0.30943957  0.57575771  0.08095769    -0.32600
C2747       C  0.32553288  0.58298616  0.09417576     0.20900
C2748       C  0.34522602  0.57422519  0.09342091     0.03100
C2749       C  0.34996985  0.55835602  0.07935569    -0.22300
C2750       C  0.33421113  0.55163353  0.06586255     0.12200
S2751       S  0.29768001  0.54947089  0.04823926    -0.06000
C2752       C  0.31811139  0.53446263  0.03929743    -0.09400
C2753       C  0.33648533  0.53726607  0.05035154    -0.26000
S2754       S  0.36301482  0.58547219  0.10948231    -0.03200
C2755       C  0.34424463  0.60305729  0.11708049    -0.16700
C2756       C  0.32478964  0.59953981  0.10794504    -0.14700
H2757       H  0.29405996  0.58263974  0.08132919     0.20700
H2758       H  0.36556694  0.55199029  0.07847862     0.16700
H2759       H  0.35098149  0.52932239  0.04704834     0.19200
H2760       H  0.31122597  0.60923621  0.11026987     0.12600
C2761       C  0.31451640  0.69712742  0.17727581     0.16500
C2762       C  0.30603869  0.71595049  0.18449329    -0.32600
C2763       C  0.29124161  0.71494598  0.20045916     0.20900
C2764       C  0.28494516  0.69603237  0.20851308     0.03100
C2765       C  0.29348682  0.67725097  0.20139096    -0.22300
C2766       C  0.30852801  0.67825409  0.18571036     0.12200
S2767       S  0.33292823  0.69499188  0.15839329    -0.06000
C2768       C  0.33290453  0.66828892  0.16200140    -0.09400
C2769       C  0.31906942  0.66172926  0.17715283    -0.26000
S2770       S  0.26666103  0.69800055  0.22745262    -0.03200
C2771       C  0.26788151  0.72489314  0.22546295    -0.16700
C2772       C  0.28156719  0.73147597  0.21001392    -0.14700
H2773       H  0.31093105  0.73073160  0.17809706     0.20700
H2774       H  0.28873397  0.66249143  0.20793434     0.16700
H2775       H  0.31700755  0.64567692  0.18178939     0.19200
H2776       H  0.28432616  0.74761886  0.20607754     0.12600
loop_ 
_geom_bond_atom_site_label_1 
_geom_bond_atom_site_label_2 
_geom_bond_distance 
_geom_bond_site_symmetry_2 
_ccdc_geom_bond_type 
C1            C2   1.546       .  S
C1            C7   1.552       .  S
C1            C5   1.548       .  S
C1         C2768   1.522       .  S
C2            H9   1.086       .  S
C2            C3   1.364       .  D
C3            C4   1.529       .  S
C3         C2736   1.477       .  S
C4            C8   1.537       .  S
C4            C6   1.527       .  S
C4           H10   1.106       .  S
C5           H11   1.084       .  S
C5            C6   1.361       .  D
C6         C2720   1.476       .  S
C7           H12   1.085       .  S
C7            C8   1.373       .  D
C8         C2755   1.494       .  S
C13          C14   1.551       .  S
C13          C19   1.548       .  S
C13          C17   1.552       .  S
C13        C2704   1.530       .  S
C14          H21   1.086       .  S
C14          C15   1.368       .  D
C15          C16   1.533       .  S
C15        C2656   1.492       .  S
C16          C20   1.534       .  S
C16          C18   1.534       .  S
C16          H22   1.105       .  S
C17          H23   1.084       .  S
C17          C18   1.369       .  D
C18        C2675   1.490       .  S
C19          H24   1.086       .  S
C19          C20   1.369       .  D
C20        C2691   1.487       .  S
C25          C26   1.551       .  S
C25          C31   1.552       .  S
C25          C29   1.546       .  S
C25        C2640   1.529       .  S
C26          H33   1.084       .  S
C26          C27   1.364       .  D
C27          C28   1.532       .  S
C27        C2592   1.483       .  S
C28          C32   1.534       .  S
C28          C30   1.531       .  S
C28          H34   1.109       .  S
C29          H35   1.086       .  S
C29          C30   1.366       .  D
C30        C2627   1.479       .  S
C31          H36   1.086       .  S
C31          C32   1.372       .  D
C32        C2611   1.488       .  S
C37          C38   1.542       .  S
C37          C43   1.547       .  S
C37          C41   1.554       .  S
C37        C2576   1.520       .  S
C38          H45   1.086       .  S
C38          C39   1.364       .  D
C39          C40   1.531       .  S
C39        C2547   1.481       .  S
C40          C44   1.533       .  S
C40          C42   1.531       .  S
C40          H46   1.105       .  S
C41          H47   1.084       .  S
C41          C42   1.367       .  D
C42        C2531   1.487       .  S
C43          H48   1.085       .  S
C43          C44   1.367       .  D
C44        C2560   1.481       .  S
O49         Cu57   2.042       .  S
O49          C59   1.281       .  A
O50         Cu57   2.043       .  S
O50          C60   1.281       .  A
O51         Cu57   2.019       .  S
O51          C61   1.278       .  A
O52         Cu57   2.024       .  S
O52          C62   1.279       .  A
O53         Cu58   2.005       .  S
O53          C62   1.278       .  A
O54         Cu58   2.009       .  S
O54          C61   1.278       .  A
O55         Cu58   1.989       .  S
O55          C60   1.275       .  A
O56         Cu58   1.993       .  S
O56          C59   1.276       .  A
Cu57        Cu58   2.369       .  S
C59        C2528   1.477       .  S
C60        C2624   1.473       .  S
C61        C2739   1.472       .  S
C62        C2672   1.476       .  S
C63          C64   1.555       .  S
C63          C69   1.546       .  S
C63          C67   1.543       .  S
C63        C2512   1.522       .  S
C64          H71   1.084       .  S
C64          C65   1.368       .  D
C65          C66   1.532       .  S
C65        C2483   1.490       .  S
C66          C70   1.532       .  S
C66          C68   1.535       .  S
C66          H72   1.105       .  S
C67          H73   1.086       .  S
C67          C68   1.365       .  D
C68        C2464   1.483       .  S
C69          H74   1.086       .  S
C69          C70   1.366       .  D
C70        C2496   1.482       .  S
C75          C76   1.550       .  S
C75          C81   1.551       .  S
C75          C79   1.552       .  S
C75        C2451   1.531       .  S
C76          H83   1.086       .  S
C76          C77   1.371       .  D
C77          C78   1.535       .  S
C77        C2416   1.491       .  S
C78          C82   1.526       .  S
C78          C80   1.532       .  S
C78          H84   1.103       .  S
C79          H85   1.085       .  S
C79          C80   1.372       .  D
C80        C2403   1.489       .  S
C81          H86   1.084       .  S
C81          C82   1.360       .  D
C82        C2435   1.480       .  S
C87          C88   1.545       .  S
C87          C93   1.556       .  S
C87          C91   1.545       .  S
C87        C2384   1.526       .  S
C88          H95   1.086       .  S
C88          C89   1.368       .  D
C89          C90   1.536       .  S
C89        C2371   1.487       .  S
C90          C94   1.538       .  S
C90          C92   1.530       .  S
C90          H96   1.104       .  S
C91          H97   1.086       .  S
C91          C92   1.364       .  D
C92        C2352   1.479       .  S
C93          H98   1.084       .  S
C93          C94   1.370       .  D
C94        C2336   1.499       .  S
C99         C100   1.554       .  S
C99         C105   1.547       .  S
C99         C103   1.546       .  S
C99        C2320   1.527       .  S
C100        H107   1.083       .  S
C100        C101   1.368       .  D
C101        C102   1.527       .  S
C101       C2304   1.478       .  S
C102        C106   1.528       .  S
C102        C104   1.533       .  S
C102        H108   1.108       .  S
C103        H109   1.086       .  S
C103        C104   1.366       .  D
C104       C2275   1.485       .  S
C105        H110   1.086       .  S
C105        C106   1.367       .  D
C106       C2288   1.477       .  S
O111       Cu119   1.995       .  S
O111        C121   1.277       .  A
O112       Cu119   1.993   1_554  S
O112        C122   1.276       .  A
O113       Cu119   1.993   1_554  S
O113        C123   1.277       .  A
O114       Cu119   1.999       .  S
O114        C124   1.276       .  A
O115       Cu120   2.027       .  S
O115        C124   1.279       .  A
O116       Cu120   2.025   1_554  S
O116        C123   1.278       .  A
O117       Cu120   2.047   1_554  S
O117        C122   1.282       .  A
O118       Cu120   2.043       .  S
O118        C121   1.281       .  A
Cu119      Cu120   2.370       .  S
C121       C2480   1.480       .  S
C122       C2752   1.481       .  S
C123       C2563   1.472       .  S
C124       C2307   1.471       .  S
O125       Cu133   1.981   1_554  S
O125        C135   1.275       .  A
O126       Cu133   1.986       .  S
O126        C136   1.275       .  A
O127       Cu133   1.988   1_554  S
O127        C137   1.275       .  A
O128       Cu133   1.987       .  S
O128        C138   1.275       .  A
O129       Cu134   2.043       .  S
O129        C138   1.281       .  A
O130       Cu134   2.045   1_554  S
O130        C137   1.282       .  A
O131       Cu134   2.034       .  S
O131        C136   1.280       .  A
O132       Cu134   2.033   1_554  S
O132        C135   1.279       .  A
Cu133      Cu134   2.369       .  S
C135       C2723   1.470       .  S
C136       C2355   1.470       .  S
C137       C2595   1.477       .  S
C138       C2272   1.475       .  S
O139       Cu147   2.008       .  S
O139        C149   1.278       .  A
O140       Cu147   2.005   1_554  S
O140        C150   1.278       .  A
O141       Cu147   1.984       .  S
O141        C151   1.275       .  A
O142       Cu147   1.984   1_554  S
O142        C152   1.275       .  A
O143       Cu148   2.070   1_554  S
O143        C152   1.284       .  A
O144       Cu148   2.068       .  S
O144        C151   1.284       .  A
O145       Cu148   2.044   1_554  S
O145        C150   1.281       .  A
O146       Cu148   2.039       .  S
O146        C149   1.280       .  A
Cu147      Cu148   2.365       .  S
C149       C2400   1.481       .  S
C150       C2608   1.482       .  S
C151       C2339   1.488       .  S
C152       C2659   1.485       .  S
O153       Cu161   1.995   1_554  S
O153        C163   1.277       .  A
O154       Cu161   1.996       .  S
O154        C164   1.277       .  A
O155       Cu161   1.991       .  S
O155        C165   1.275       .  A
O156       Cu161   1.989   1_554  S
O156        C166   1.276       .  A
O157       Cu162   2.040   1_554  S
O157        C166   1.280       .  A
O158       Cu162   2.041       .  S
O158        C165   1.281       .  A
O159       Cu162   2.029       .  S
O159        C164   1.279       .  A
O160       Cu162   2.031   1_554  S
O160        C163   1.279       .  A
Cu161      Cu162   2.368       .  S
C163       C2544   1.473       .  S
C164       C2432   1.472       .  S
C165       C2499   1.474       .  S
C166       C2688   1.475       .  S
O167       Cu175   1.982       .  S
O167        C177   1.275       .  A
O168       Cu175   1.990       .  S
O168        C178   1.275       .  A
O169       Cu175   2.000       .  S
O169        C179   1.277       .  A
O170       Cu175   2.002       .  S
O170        C180   1.277       .  A
O171       Cu176   2.030       .  S
O171        C180   1.280       .  A
O172       Cu176   2.025       .  S
O172        C179   1.279       .  A
O173       Cu176   2.035       .  S
O173        C178   1.281       .  A
O174       Cu176   2.039       .  S
O174        C177   1.280       .  A
Cu175      Cu176   2.370       .  S
C177       C2467   1.469       .  S
C178       C2368   1.473       .  S
C179       C2291   1.471       .  S
C180       C2419   1.476       .  S
C181        C182   1.545       .  S
C181        C187   1.547       .  S
C181        C185   1.551       .  S
C181       C2256   1.530       .  S
C182        H189   1.086       .  S
C182        C183   1.365       .  D
C183        C184   1.535       .  S
C183       C2224   1.486       .  S
C184        C188   1.536       .  S
C184        C186   1.541       .  S
C184        H190   1.102       .  S
C185        H191   1.085       .  S
C185        C186   1.374       .  D
C186       C2208   1.498       .  S
C187        H192   1.084       .  S
C187        C188   1.363       .  D
C188       C2240   1.488       .  S
C193        C194   1.548       .  S
C193        C199   1.553       .  S
C193        C197   1.555       .  S
C193       C2195   1.529       .  S
C194        H201   1.086       .  S
C194        C195   1.365       .  D
C195        C196   1.528       .  S
C195       C2147   1.483       .  S
C196        C200   1.532       .  S
C196        C198   1.528       .  S
C196        H202   1.106       .  S
C197        H203   1.085       .  S
C197        C198   1.367       .  D
C198       C2176   1.484       .  S
C199        H204   1.085       .  S
C199        C200   1.372       .  D
C200       C2160   1.490       .  S
C205        C206   1.552       .  S
C205        C211   1.543       .  S
C205        C209   1.552       .  S
C205       C2131   1.521       .  S
C206        H213   1.086       .  S
C206        C207   1.370       .  D
C207        C208   1.531       .  S
C207       C2083   1.487       .  S
C208        C212   1.527       .  S
C208        C210   1.529       .  S
C208        H214   1.106       .  S
C209        H215   1.084       .  S
C209        C210   1.368       .  D
C210       C2099   1.485       .  S
C211        H216   1.086       .  S
C211        C212   1.362       .  D
C212       C2115   1.473       .  S
C217        C218   1.540       .  S
C217        C223   1.548       .  S
C217        C221   1.554       .  S
C217       C2064   1.522       .  S
C218        H225   1.086       .  S
C218        C219   1.362       .  D
C219        C220   1.535       .  S
C219       C2016   1.481       .  S
C220        C224   1.540       .  S
C220        C222   1.530       .  S
C220        H226   1.102       .  S
C221        H227   1.083       .  S
C221        C222   1.366       .  D
C222       C2051   1.482       .  S
C223        H228   1.085       .  S
C223        C224   1.370       .  D
C224       C2032   1.495       .  S
O229       Cu237   2.026       .  S
O229        C239   1.279       .  A
O230       Cu237   2.032       .  S
O230        C240   1.279       .  A
O231       Cu237   2.043       .  S
O231        C241   1.281       .  A
O232       Cu237   2.044       .  S
O232        C242   1.281       .  A
O233       Cu238   1.985       .  S
O233        C242   1.275       .  A
O234       Cu238   1.987       .  S
O234        C241   1.275       .  A
O235       Cu238   2.006       .  S
O235        C240   1.278       .  A
O236       Cu238   2.006       .  S
O236        C239   1.278       .  A
Cu237      Cu238   2.369       .  S
C239       C2096   1.476       .  S
C240       C2163   1.478       .  S
C241       C2019   1.473       .  S
C242       C2243   1.475       .  S
C243        C244   1.553       .  S
C243        C249   1.549       .  S
C243        C247   1.549       .  S
C243       C2003   1.527       .  S
C244        H251   1.084       .  S
C244        C245   1.369       .  D
C245        C246   1.533       .  S
C245       C1968   1.489       .  S
C246        C250   1.527       .  S
C246        C248   1.531       .  S
C246        H252   1.107       .  S
C247        H253   1.086       .  S
C247        C248   1.367       .  D
C248       C1984   1.485       .  S
C249        H254   1.086       .  S
C249        C250   1.366       .  D
C250       C1952   1.478       .  S
C255        C256   1.554       .  S
C255        C261   1.549       .  S
C255        C259   1.551       .  S
C255       C1939   1.524       .  S
C256        H263   1.085       .  S
C256        C257   1.369       .  D
C257        C258   1.529       .  S
C257       C1920   1.484       .  S
C258        C262   1.529       .  S
C258        C260   1.528       .  S
C258        H264   1.107       .  S
C259        H265   1.086       .  S
C259        C260   1.368       .  D
C260       C1904   1.481       .  S
C261        H266   1.086       .  S
C261        C262   1.365       .  D
C262       C1888   1.482       .  S
C267        C268   1.546       .  S
C267        C273   1.544       .  S
C267        C271   1.559       .  S
C267       C1875   1.525       .  S
C268        H275   1.085       .  S
C268        C269   1.368       .  D
C269        C270   1.534       .  S
C269       C1840   1.487       .  S
C270        C274   1.528       .  S
C270        C272   1.533       .  S
C270        H276   1.105       .  S
C271        H277   1.083       .  S
C271        C272   1.372       .  D
C272       C1824   1.492       .  S
C273        H278   1.086       .  S
C273        C274   1.362       .  D
C274       C1856   1.480       .  S
C279        C280   1.557       .  S
C279        C285   1.545       .  S
C279        C283   1.544       .  S
C279       C1808   1.528       .  S
C280        H287   1.083       .  S
C280        C281   1.371       .  D
C281        C282   1.535       .  S
C281       C1792   1.495       .  S
C282        C286   1.529       .  S
C282        C284   1.542       .  S
C282        H288   1.104       .  S
C283        H289   1.085       .  S
C283        C284   1.370       .  D
C284       C1776   1.496       .  S
C285        H290   1.086       .  S
C285        C286   1.361       .  D
C286       C1760   1.477       .  S
O291       Cu299   1.988   1_545  S
O291        C301   1.275       .  A
O292       Cu299   1.997       .  S
O292        C302   1.277       .  A
O293       Cu299   2.001   1_545  S
O293        C303   1.278       .  A
O294       Cu299   1.998       .  S
O294        C304   1.276       .  A
O295       Cu300   2.039       .  S
O295        C304   1.280       .  A
O296       Cu300   2.044   1_545  S
O296        C303   1.281       .  A
O297       Cu300   2.044       .  S
O297        C302   1.281       .  A
O298       Cu300   2.051   1_545  S
O298        C301   1.282       .  A
Cu299      Cu300   2.371       .  S
C301       C2144   1.476       .  S
C302       C1779   1.482       .  S
C303       C2211   1.482       .  S
C304       C1955   1.472       .  S
O305       Cu313   2.001       .  S
O305        C315   1.276       .  A
O306       Cu313   2.009   1_545  S
O306        C316   1.278       .  A
O307       Cu313   1.989   1_545  S
O307        C317   1.275       .  A
O308       Cu313   1.985       .  S
O308        C318   1.276       .  A
O309       Cu314   2.053       .  S
O309        C318   1.282       .  A
O310       Cu314   2.053   1_545  S
O310        C317   1.282       .  A
O311       Cu314   2.028   1_545  S
O311        C316   1.279       .  A
O312       Cu314   2.030       .  S
O312        C315   1.279       .  A
Cu313      Cu314   2.369       .  S
C315       C1763   1.469       .  S
C316       C2080   1.477       .  S
C317       C2227   1.479       .  S
C318       C1827   1.482       .  S
O319       Cu327   2.047   1_545  S
O319        C329   1.282       .  A
O320       Cu327   2.056       .  S
O320        C330   1.283       .  A
O321       Cu327   2.021   1_545  S
O321        C331   1.278       .  A
O322       Cu327   2.025       .  S
O322        C332   1.279       .  A
O323       Cu328   1.999       .  S
O323        C332   1.277       .  A
O324       Cu328   1.993   1_545  S
O324        C331   1.277       .  A
O325       Cu328   1.973       .  S
O325        C330   1.273       .  A
O326       Cu328   1.984   1_545  S
O326        C329   1.275       .  A
Cu327      Cu328   2.373       .  S
C329       C2035   1.477       .  S
C330       C1859   1.472       .  S
C331       C2112   1.467       .  S
C332       C1923   1.473       .  S
O333       Cu341   2.015   1_545  S
O333        C343   1.280       .  A
O334       Cu341   2.005       .  S
O334        C344   1.278       .  A
O335       Cu341   1.989       .  S
O335        C345   1.275       .  A
O336       Cu341   1.980   1_545  S
O336        C346   1.273       .  A
O337       Cu342   2.056   1_545  S
O337        C346   1.283       .  A
O338       Cu342   2.046       .  S
O338        C345   1.282       .  A
O339       Cu342   2.026       .  S
O339        C344   1.278       .  A
O340       Cu342   2.016   1_545  S
O340        C343   1.277       .  A
Cu341      Cu342   2.372       .  S
C343       C2179   1.475       .  S
C344       C1907   1.474       .  S
C345       C1987   1.477       .  S
C346       C2048   1.474       .  S
O347       Cu355   2.048       .  S
O347        C357   1.281       .  A
O348       Cu355   2.045       .  S
O348        C358   1.281       .  A
O349       Cu355   2.033       .  S
O349        C359   1.280       .  A
O350       Cu355   2.031       .  S
O350        C360   1.279       .  A
O351       Cu356   1.992       .  S
O351        C360   1.276       .  A
O352       Cu356   1.995       .  S
O352        C359   1.277       .  A
O353       Cu356   1.993       .  S
O353        C358   1.276       .  A
O354       Cu356   1.994       .  S
O354        C357   1.276       .  A
Cu355      Cu356   2.369       .  S
C357       C1795   1.477       .  S
C358       C1891   1.476       .  S
C359       C1971   1.476       .  S
C360       C1843   1.474       .  S
C361        C362   1.545       .  S
C361        C367   1.550       .  S
C361        C365   1.552       .  S
C361       C1744   1.529       .  S
C362        H369   1.086       .  S
C362        C363   1.365       .  D
C363        C364   1.531       .  S
C363       C1728   1.479       .  S
C364        C368   1.533       .  S
C364        C366   1.533       .  S
C364        H370   1.106       .  S
C365        H371   1.084       .  S
C365        C366   1.366       .  D
C366       C1696   1.489       .  S
C367        H372   1.086       .  S
C367        C368   1.371       .  D
C368       C1712   1.486       .  S
C373        C374   1.552       .  S
C373        C379   1.545       .  S
C373        C377   1.556       .  S
C373       C1680   1.535       .  S
C374        H381   1.086       .  S
C374        C375   1.372       .  D
C375        C376   1.534       .  S
C375       C1664   1.492       .  S
C376        C380   1.531       .  S
C376        C378   1.532       .  S
C376        H382   1.107       .  S
C377        H383   1.083       .  S
C377        C378   1.369       .  D
C378       C1648   1.486       .  S
C379        H384   1.086       .  S
C379        C380   1.364       .  D
C380       C1632   1.481       .  S
C385        C386   1.552       .  S
C385        C391   1.554       .  S
C385        C389   1.552       .  S
C385       C1616   1.532       .  S
C386        H393   1.086       .  S
C386        C387   1.371       .  D
C387        C388   1.531       .  S
C387       C1571   1.487       .  S
C388        C392   1.527       .  S
C388        C390   1.527       .  S
C388        H394   1.107       .  S
C389        H395   1.084       .  S
C389        C390   1.365       .  D
C390       C1600   1.481       .  S
C391        H396   1.086       .  S
C391        C392   1.369       .  D
C392       C1584   1.485       .  S
C397        C398   1.549       .  S
C397        C403   1.545       .  S
C397        C401   1.549       .  S
C397       C1552   1.526       .  S
C398        H405   1.086       .  S
C398        C399   1.372       .  D
C399        C400   1.536       .  S
C399       C1520   1.489       .  S
C400        C404   1.533       .  S
C400        C402   1.530       .  S
C400        H406   1.108       .  S
C401        H407   1.084       .  S
C401        C402   1.363       .  D
C402       C1504   1.477       .  S
C403        H408   1.086       .  S
C403        C404   1.365       .  D
C404       C1536   1.482       .  S
O409       Cu417   2.025   1_655  S
O409        C419   1.279       .  A
O410       Cu417   2.031       .  S
O410        C420   1.280       .  A
O411       Cu417   2.032   1_655  S
O411        C421   1.279       .  A
O412       Cu417   2.029       .  S
O412        C422   1.280       .  A
O413       Cu418   1.997       .  S
O413        C422   1.277       .  A
O414       Cu418   1.997   1_655  S
O414        C421   1.277       .  A
O415       Cu418   2.000       .  S
O415        C420   1.276       .  A
O416       Cu418   1.995   1_655  S
O416        C419   1.276       .  A
Cu417      Cu418   2.368       .  S
C419       C1507   1.469       .  S
C420       C1491   1.472       .  S
C421       C1568   1.476       .  S
C422       C1472   1.474       .  S
O423       Cu431   2.048       .  S
O423        C433   1.281       .  A
O424       Cu431   2.045   1_655  S
O424        C434   1.281       .  A
O425       Cu431   2.046   1_655  S
O425        C435   1.282       .  A
O426       Cu431   2.039       .  S
O426        C436   1.280       .  A
O427       Cu432   1.990       .  S
O427        C436   1.276       .  A
O428       Cu432   1.992   1_655  S
O428        C435   1.276       .  A
O429       Cu432   1.996   1_655  S
O429        C434   1.277       .  A
O430       Cu432   1.993       .  S
O430        C433   1.276       .  A
Cu431      Cu432   2.368       .  S
C433       C1456   1.479       .  S
C434       C1523   1.481       .  S
C435       C1699   1.479       .  S
C436       C1440   1.474       .  S
O437       Cu445   2.019       .  S
O437        C447   1.277       .  A
O438       Cu445   2.020   1_655  S
O438        C448   1.278       .  A
O439       Cu445   2.045       .  S
O439        C449   1.282       .  A
O440       Cu445   2.045   1_655  S
O440        C450   1.282       .  A
O441       Cu446   2.004   1_655  S
O441        C450   1.277       .  A
O442       Cu446   2.004       .  S
O442        C449   1.277       .  A
O443       Cu446   2.004   1_655  S
O443        C448   1.278       .  A
O444       Cu446   2.002       .  S
O444        C447   1.278       .  A
Cu445      Cu446   2.368       .  S
C447       C1408   1.471       .  S
C448       C1603   1.471       .  S
C449       C1427   1.482       .  S
C450       C1667   1.483       .  S
O451       Cu459   1.994       .  S
O451        C461   1.277       .  A
O452       Cu459   1.996   1_655  S
O452        C462   1.276       .  A
O453       Cu459   1.992       .  S
O453        C463   1.276       .  A
O454       Cu459   1.998   1_655  S
O454        C464   1.276       .  A
O455       Cu460   2.035   1_655  S
O455        C464   1.280       .  A
O456       Cu460   2.030       .  S
O456        C463   1.279       .  A
O457       Cu460   2.029   1_655  S
O457        C462   1.280       .  A
O458       Cu460   2.031       .  S
O458        C461   1.279       .  A
Cu459      Cu460   2.369       .  S
C461       C1376   1.474       .  S
C462       C1731   1.471       .  S
C463       C1395   1.471       .  S
C464       C1651   1.474       .  S
O465       Cu473   2.030       .  S
O465        C475   1.279       .  A
O466       Cu473   2.024       .  S
O466        C476   1.278       .  A
O467       Cu473   2.051       .  S
O467        C477   1.282       .  A
O468       Cu473   2.049       .  S
O468        C478   1.282       .  A
O469       Cu474   1.984       .  S
O469        C478   1.274       .  A
O470       Cu474   1.981       .  S
O470        C477   1.274       .  A
O471       Cu474   2.018       .  S
O471        C476   1.279       .  A
O472       Cu474   2.019       .  S
O472        C475   1.279       .  A
Cu473      Cu474   2.367       .  S
C475       C1587   1.479       .  S
C476       C1715   1.478       .  S
C477       C1539   1.475       .  S
C478       C1635   1.474       .  S
C479        C480   1.548       .  S
C479        C485   1.551       .  S
C479        C483   1.550       .  S
C479       C1360   1.528       .  S
C480        H487   1.086       .  S
C480        C481   1.366       .  D
C481        C482   1.531       .  S
C481       C1347   1.486       .  S
C482        C486   1.527       .  S
C482        C484   1.534       .  S
C482        H488   1.105       .  S
C483        H489   1.086       .  S
C483        C484   1.370       .  D
C484       C1459   1.490       .  S
C485        H490   1.083       .  S
C485        C486   1.365       .  D
C486       C1392   1.476       .  S
C491        C492   1.549       .  S
C491        C497   1.549       .  S
C491        C495   1.544       .  S
C491       C1328   1.523       .  S
C492        H499   1.085       .  S
C492        C493   1.372       .  D
C493        C494   1.536       .  S
C493       C1424   1.489       .  S
C494        C498   1.528       .  S
C494        C496   1.534       .  S
C494        H500   1.108       .  S
C495        H501   1.086       .  S
C495        C496   1.366       .  D
C496       C1488   1.480       .  S
C497        H502   1.084       .  S
C497        C498   1.358       .  D
C498       C1312   1.475       .  S
C503        C504   1.555       .  S
C503        C509   1.549       .  S
C503        C507   1.556       .  S
C503       C1296   1.534       .  S
C504        H511   1.085       .  S
C504        C505   1.373       .  D
C505        C506   1.530       .  S
C505       C1280   1.490       .  S
C506        C510   1.525       .  S
C506        C508   1.527       .  S
C506        H512   1.106       .  S
C507        H513   1.082       .  S
C507        C508   1.366       .  D
C508       C1475   1.483       .  S
C509        H514   1.086       .  S
C509        C510   1.364       .  D
C510       C1443   1.478       .  S
C515        C516   1.554       .  S
C515        C521   1.547       .  S
C515        C519   1.550       .  S
C515       C1267   1.518       .  S
C516        H523   1.085       .  S
C516        C517   1.367       .  D
C517        C518   1.529       .  S
C517       C1379   1.483       .  S
C518        C522   1.527       .  S
C518        C520   1.529       .  S
C518        H524   1.105       .  S
C519        H525   1.086       .  S
C519        C520   1.366       .  D
C520       C1411   1.483       .  S
C521        H526   1.086       .  S
C521        C522   1.364       .  D
C522       C1251   1.479       .  S
O527       Cu535   1.980       .  S
O527        C537   1.274       .  A
O528       Cu535   1.980       .  S
O528        C538   1.274       .  A
O529       Cu535   2.001       .  S
O529        C539   1.277       .  A
O530       Cu535   2.006       .  S
O530        C540   1.278       .  A
O531       Cu536   2.025       .  S
O531        C540   1.278       .  A
O532       Cu536   2.025       .  S
O532        C539   1.278       .  A
O533       Cu536   2.044       .  S
O533        C538   1.281       .  A
O534       Cu536   2.049       .  S
O534        C537   1.282       .  A
Cu535      Cu536   2.368       .  S
C537       C1344   1.475       .  S
C538       C1315   1.471       .  S
C539       C1248   1.471       .  S
C540       C1283   1.477       .  S
C541       C1232   1.545       .  S
C541       C1264   1.543       .  S
C541       C2067   1.544       .  S
C541       C2579   1.541       .  S
C542       C1216   1.549       .  S
C542       C1683   1.551       .  S
C542       C2192   1.552       .  S
C542       C2707   1.553       .  S
C543       C1200   1.538       .  S
C543       C1331   1.541       .  S
C543       C1936   1.545       .  S
C543       C2771   1.546       .  S
C544       C1184   1.553       .  S
C544       C1363   1.556       .  S
C544       C2128   1.540       .  S
C544       C2515   1.552       .  S
C545       C1168   1.550       .  S
C545       C1747   1.550       .  S
C545       C2259   1.550       .  S
C545       C2448   1.550       .  S
C546       C1152   1.548       .  S
C546       C1619   1.553       .  S
C546       C2000   1.553       .  S
C546       C2643   1.547       .  S
C547       C1139   1.563       .  S
C547       C1299   1.558       .  S
C547       C1872   1.561       .  S
C547       C2323   1.546       .  S
C548        C549   1.544       .  S
C548        C554   1.547       .  S
C548        C552   1.553       .  S
C548       C1235   1.519       .  S
C549        H556   1.085       .  S
C549        C550   1.358       .  D
C550        C551   1.526       .  S
C550       C1123   1.467       .  S
C551        C555   1.529       .  S
C551        C553   1.533       .  S
C551        H557   1.108       .  S
C552        H558   1.085       .  S
C552        C553   1.372       .  D
C553       C1107   1.489       .  S
C554        H559   1.086       .  S
C554        C555   1.365       .  D
C555       C1091   1.478       .  S
C560        C561   1.550       .  S
C560        C566   1.543       .  S
C560        C564   1.544       .  S
C560       C1187   1.519       .  S
C561        H568   1.084       .  S
C561        C562   1.367       .  D
C562        C563   1.532       .  S
C562       C1072   1.485       .  S
C563        C567   1.534       .  S
C563        C565   1.535       .  S
C563        H569   1.106       .  S
C564        H570   1.086       .  S
C564        C565   1.366       .  D
C565       C1056   1.483       .  S
C566        H571   1.086       .  S
C566        C567   1.365       .  D
C567       C1040   1.480       .  S
C572        C573   1.549       .  S
C572        C578   1.552       .  S
C572        C576   1.546       .  S
C572       C1219   1.525       .  S
C573        H580   1.086       .  S
C573        C574   1.370       .  D
C574        C575   1.534       .  S
C574       C1027   1.490       .  S
C575        C579   1.532       .  S
C575        C577   1.531       .  S
C575        H581   1.103       .  S
C576        H582   1.086       .  S
C576        C577   1.364       .  D
C577       C1011   1.482       .  S
C578        H583   1.084       .  S
C578        C579   1.367       .  D
C579        C992   1.485       .  S
C584        C585   1.546       .  S
C584        C590   1.539       .  S
C584        C588   1.551       .  S
C584       C1203   1.515       .  S
C585        H592   1.086       .  S
C585        C586   1.363       .  D
C586        C587   1.533       .  S
C586        C960   1.478       .  S
C587        C591   1.533       .  S
C587        C589   1.537       .  S
C587        H593   1.103       .  S
C588        H594   1.082       .  S
C588        C589   1.370       .  D
C589        C979   1.491       .  S
C590        H595   1.086       .  S
C590        C591   1.361       .  D
C591        C947   1.479       .  S
C596        C597   1.553       .  S
C596        C602   1.555       .  S
C596        C600   1.548       .  S
C596       C1155   1.528       .  S
C597        H604   1.086       .  S
C597        C598   1.372       .  D
C598        C599   1.532       .  S
C598        C915   1.492       .  S
C599        C603   1.528       .  S
C599        C601   1.526       .  S
C599        H605   1.105       .  S
C600        H606   1.086       .  S
C600        C601   1.364       .  D
C601        C928   1.480       .  S
C602        H607   1.084       .  S
C602        C603   1.366       .  D
C603        C896   1.483       .  S
O608       Cu616   1.999   1_655  S
O608        C618   1.277       .  A
O609       Cu616   2.012   1_545  S
O609        C619   1.279       .  A
O610       Cu616   1.976       .  S
O610        C620   1.274       .  A
O611       Cu616   1.991   1_645  S
O611        C621   1.275       .  A
O612       Cu617   2.036   1_645  S
O612        C621   1.280       .  A
O613       Cu617   2.045       .  S
O613        C620   1.281       .  A
O614       Cu617   2.022   1_545  S
O614        C619   1.278       .  A
O615       Cu617   2.031   1_655  S
O615        C618   1.279       .  A
Cu616      Cu617   2.373       .  S
C618        C899   1.475       .  S
C619       C1104   1.477       .  S
C620        C963   1.471       .  S
C621       C1008   1.472       .  S
C622        C623   1.555       .  S
C622        C628   1.549       .  S
C622        C626   1.548       .  S
C622       C1136   1.533       .  S
C623        H630   1.083       .  S
C623        C624   1.371       .  D
C624        C625   1.533       .  S
C624        C848   1.492       .  S
C625        C629   1.537       .  S
C625        C627   1.527       .  S
C625        H631   1.098       .  S
C626        H632   1.086       .  S
C626        C627   1.364       .  D
C627        C880   1.479       .  S
C628        H633   1.085       .  S
C628        C629   1.371       .  D
C629        C867   1.499       .  S
O634       Cu642   2.041   1_554  S
O634        C644   1.281       .  A
O635       Cu642   2.042   1_545  S
O635        C645   1.281       .  A
O636       Cu642   2.034   1_544  S
O636        C646   1.279       .  A
O637       Cu642   2.029       .  S
O637        C647   1.280       .  A
O638       Cu643   2.001   1_565  S
O638        C647   1.277       .  A
O639       Cu643   1.997   1_554  S
O639        C646   1.277       .  A
O640       Cu643   1.978       .  S
O640        C645   1.274       .  A
O641       Cu643   1.980   1_564  S
O641        C644   1.274       .  A
Cu642      Cu643   2.368   1_565  S
C644        C944   1.471       .  S
C645       C1043   1.470       .  S
C646       C1088   1.473       .  S
C647        C851   1.475       .  S
C648        C649   1.550       .  S
C648        C654   1.554       .  S
C648        C652   1.547       .  S
C648       C1171   1.529       .  S
C649        H656   1.086       .  S
C649        C650   1.369       .  D
C650        C651   1.531       .  S
C650        C816   1.486       .  S
C651        C655   1.526       .  S
C651        C653   1.532       .  S
C651        H657   1.107       .  S
C652        H658   1.085       .  S
C652        C653   1.370       .  D
C653        C803   1.483       .  S
C654        H659   1.084       .  S
C654        C655   1.362       .  D
C655        C835   1.480       .  S
O660       Cu668   2.018   1_554  S
O660        C670   1.277       .  A
O661       Cu668   2.018   1_655  S
O661        C671   1.278       .  A
O662       Cu668   2.053   1_654  S
O662        C672   1.282       .  A
O663       Cu668   2.046       .  S
O663        C673   1.282       .  A
O664       Cu669   1.986       .  S
O664        C673   1.275       .  A
O665       Cu669   1.974   1_654  S
O665        C672   1.274       .  A
O666       Cu669   1.989   1_655  S
O666        C671   1.276       .  A
O667       Cu669   1.977   1_554  S
O667        C670   1.275       .  A
Cu668      Cu669   2.374       .  S
C670       C1120   1.461       .  S
C671        C800   1.468       .  S
C672        C995   1.477       .  S
C673       C1059   1.474       .  S
C674        C675   1.550       .  S
C674        C680   1.549       .  S
C674        C678   1.559       .  S
C674        C784   1.531       .  S
C675        H682   1.086       .  S
C675        C676   1.367       .  D
C676        C677   1.531       .  S
C676        C752   1.485       .  S
C677        C681   1.530       .  S
C677        C679   1.532       .  S
C677        H683   1.106       .  S
C678        H684   1.083       .  S
C678        C679   1.373       .  D
C679        C739   1.490       .  S
C680        H685   1.086       .  S
C680        C681   1.364       .  D
C681        C771   1.487       .  S
O686       Cu694   2.039       .  S
O686        C696   1.281       .  A
O687       Cu694   2.037   1_654  S
O687        C697   1.280       .  A
O688       Cu694   2.041   1_655  S
O688        C698   1.280       .  A
O689       Cu694   2.030   1_554  S
O689        C699   1.280       .  A
O690       Cu695   2.000   1_554  S
O690        C699   1.277       .  A
O691       Cu695   1.987   1_655  S
O691        C698   1.276       .  A
O692       Cu695   1.992   1_654  S
O692        C697   1.275       .  A
O693       Cu695   1.982       .  S
O693        C696   1.274       .  A
Cu694      Cu695   2.373       .  S
C696        C883   1.470       .  S
C697        C931   1.472       .  S
C698        C755   1.475       .  S
C699        C976   1.476       .  S
O700       Cu708   2.043   1_545  S
O700        C710   1.280       .  A
O701       Cu708   2.044   1_554  S
O701        C711   1.281       .  A
O702       Cu708   2.046   1_544  S
O702        C712   1.282       .  A
O703       Cu708   2.049       .  S
O703        C713   1.282       .  A
O704       Cu709   1.987       .  S
O704        C713   1.276       .  A
O705       Cu709   1.989   1_544  S
O705        C712   1.275       .  A
O706       Cu709   1.996   1_554  S
O706        C711   1.276       .  A
O707       Cu709   1.997   1_545  S
O707        C710   1.277       .  A
Cu708      Cu709   2.368       .  S
C710        C819   1.477       .  S
C711        C912   1.478       .  S
C712       C1024   1.478       .  S
C713        C736   1.480       .  S
O714       Cu722   1.996   1_655  S
O714        C724   1.276       .  A
O715       Cu722   1.990   1_545  S
O715        C725   1.276       .  A
O716       Cu722   1.983   1_645  S
O716        C726   1.275       .  A
O717       Cu722   1.995       .  S
O717        C727   1.277       .  A
O718       Cu723   2.040       .  S
O718        C727   1.280       .  A
O719       Cu723   2.039   1_645  S
O719        C726   1.280       .  A
O720       Cu723   2.042   1_545  S
O720        C725   1.281       .  A
O721       Cu723   2.046   1_655  S
O721        C724   1.281       .  A
Cu722      Cu723   2.371       .  S
C724        C768   1.479       .  S
C725       C1075   1.477       .  S
C726        C832   1.472       .  S
C727        C864   1.478       .  S
C728        C787   1.550       .  S
C728       C1555   1.550       .  S
C728       C1811   1.547       .  S
C728       C2387   1.548       .  S
C729        S735   1.723       .  A
C729        C734   1.385       .  A
C729        C730   1.414       .  A
C730        C731   1.414       .  A
C730        H741   1.083       .  S
C731        C740   1.387       .  A
C731        C732   1.387       .  A
C732        S738   1.693       .  A
C732        C733   1.394       .  A
C733        C734   1.395       .  A
C733        H742   1.084       .  S
C734        C737   1.364       .  A
S735        C736   1.730       .  A
C736        C737   1.384       .  A
C737        H743   1.084       .  S
S738        C739   1.723       .  A
C739        C740   1.395       .  A
C740        H744   1.082       .  S
C745        S751   1.696       .  A
C745        C750   1.387       .  A
C745        C746   1.394       .  A
C746        C747   1.395       .  A
C746        H757   1.084       .  S
C747        C756   1.363       .  A
C747        C748   1.386       .  A
C748        S754   1.721       .  A
C748        C749   1.412       .  A
C749        C750   1.412       .  A
C749        H758   1.083       .  S
C750        C753   1.382       .  A
S751        C752   1.721       .  A
C752        C753   1.394       .  A
C753        H759   1.083       .  S
S754        C755   1.728       .  A
C755        C756   1.382       .  A
C756        H760   1.084       .  S
C761        S767   1.699       .  A
C761        C766   1.387       .  A
C761        C762   1.396       .  A
C762        C763   1.397       .  A
C762        H773   1.084       .  S
C763        C772   1.366       .  A
C763        C764   1.385       .  A
C764        S770   1.721       .  A
C764        C765   1.412       .  A
C765        C766   1.413       .  A
C765        H774   1.083       .  S
C766        C769   1.384       .  A
S767        C768   1.721       .  A
C768        C769   1.394       .  A
C769        H775   1.083       .  S
S770        C771   1.729       .  A
C771        C772   1.385       .  A
C772        H776   1.083       .  S
C777        S783   1.709       .  A
C777        C782   1.385       .  A
C777        C778   1.407       .  A
C778        C779   1.406       .  A
C778        H789   1.083       .  S
C779        C788   1.378       .  A
C779        C780   1.383       .  A
C780        S786   1.712       .  A
C780        C781   1.409       .  A
C781        C782   1.409       .  A
C781        H790   1.083       .  S
C782        C785   1.382       .  A
S783        C784   1.731       .  A
C784        C785   1.396       .  A
C785        H791   1.081       .  S
S786        C787   1.738       .  A
C787        C788   1.399       .  A
C788        H792   1.081       .  S
C793        S799   1.714       .  A
C793        C798   1.386       .  A
C793        C794   1.407       .  A
C794        C795   1.407       .  A
C794        H805   1.083       .  S
C795        C804   1.377       .  A
C795        C796   1.386       .  A
C796        S802   1.693       .  A
C796        C797   1.394       .  A
C797        C798   1.395       .  A
C797        H806   1.084       .  S
C798        C801   1.362       .  A
S799        C800   1.725       .  A
C800        C801   1.382       .  A
C801        H807   1.084       .  S
S802        C803   1.723       .  A
C803        C804   1.391       .  A
C804        H808   1.082       .  S
C809        S815   1.721       .  A
C809        C814   1.385       .  A
C809        C810   1.413       .  A
C810        C811   1.413       .  A
C810        H821   1.083       .  S
C811        C820   1.383       .  A
C811        C812   1.387       .  A
C812        S818   1.699       .  A
C812        C813   1.396       .  A
C813        C814   1.397       .  A
C813        H822   1.084       .  S
C814        C817   1.366       .  A
S815        C816   1.729       .  A
C816        C817   1.385       .  A
C817        H823   1.084       .  S
S818        C819   1.719       .  A
C819        C820   1.393       .  A
C820        H824   1.083       .  S
C825        S831   1.717       .  A
C825        C830   1.386       .  A
C825        C826   1.409       .  A
C826        C827   1.409       .  A
C826        H837   1.083       .  S
C827        C836   1.379       .  A
C827        C828   1.388       .  A
C828        S834   1.696       .  A
C828        C829   1.395       .  A
C829        C830   1.396       .  A
C829        H838   1.084       .  S
C830        C833   1.363       .  A
S831        C832   1.726       .  A
C832        C833   1.383       .  A
C833        H839   1.084       .  S
S834        C835   1.721       .  A
C835        C836   1.390       .  A
C836        H840   1.083       .  S
C841        S847   1.718       .  A
C841        C846   1.384       .  A
C841        C842   1.408       .  A
C842        C843   1.409       .  A
C842        H853   1.082       .  S
C843        C852   1.376       .  A
C843        C844   1.387       .  A
C844        S850   1.705       .  A
C844        C845   1.399       .  A
C845        C846   1.401       .  A
C845        H854   1.083       .  S
C846        C849   1.367       .  A
S847        C848   1.727       .  A
C848        C849   1.390       .  A
C849        H855   1.082       .  S
S850        C851   1.722       .  A
C851        C852   1.390       .  A
C852        H856   1.083       .  S
C857        S863   1.698       .  A
C857        C862   1.387       .  A
C857        C858   1.394       .  A
C858        C859   1.397       .  A
C858        H869   1.083       .  S
C859        C868   1.362       .  A
C859        C860   1.382       .  A
C860        S866   1.720       .  A
C860        C861   1.412       .  A
C861        C862   1.413       .  A
C861        H870   1.083       .  S
C862        C865   1.382       .  A
S863        C864   1.720       .  A
C864        C865   1.394       .  A
C865        H871   1.083       .  S
S866        C867   1.734       .  A
C867        C868   1.390       .  A
C868        H872   1.078       .  S
C873        S879   1.718       .  A
C873        C878   1.386       .  A
C873        C874   1.409       .  A
C874        C875   1.409       .  A
C874        H885   1.082       .  S
C875        C884   1.379       .  A
C875        C876   1.388       .  A
C876        S882   1.698       .  A
C876        C877   1.395       .  A
C877        C878   1.396       .  A
C877        H886   1.083       .  S
C878        C881   1.363       .  A
S879        C880   1.725       .  A
C880        C881   1.383       .  A
C881        H887   1.083       .  S
S882        C883   1.720       .  A
C883        C884   1.390       .  A
C884        H888   1.082       .  S
C889        S895   1.693       .  A
C889        C894   1.387       .  A
C889        C890   1.395       .  A
C890        C891   1.395       .  A
C890        H901   1.084       .  S
C891        C900   1.365       .  A
C891        C892   1.386       .  A
C892        S898   1.717       .  A
C892        C893   1.410       .  A
C893        C894   1.410       .  A
C893        H902   1.083       .  S
C894        C897   1.381       .  A
S895        C896   1.722       .  A
C896        C897   1.392       .  A
C897        H903   1.083       .  S
S898        C899   1.728       .  A
C899        C900   1.383       .  A
C900        H904   1.084       .  S
C905        S911   1.701       .  A
C905        C910   1.387       .  A
C905        C906   1.396       .  A
C906        C907   1.398       .  A
C906        H917   1.083       .  S
C907        C916   1.363       .  A
C907        C908   1.384       .  A
C908        S914   1.723       .  A
C908        C909   1.412       .  A
C909        C910   1.413       .  A
C909        H918   1.083       .  S
C910        C913   1.381       .  A
S911        C912   1.721       .  A
C912        C913   1.393       .  A
C913        H919   1.083       .  S
S914        C915   1.730       .  A
C915        C916   1.388       .  A
C916        H920   1.082       .  S
C921        S927   1.717       .  A
C921        C926   1.386       .  A
C921        C922   1.409       .  A
C922        C923   1.409       .  A
C922        H933   1.082       .  S
C923        C932   1.379       .  A
C923        C924   1.387       .  A
C924        S930   1.699       .  A
C924        C925   1.396       .  A
C925        C926   1.397       .  A
C925        H934   1.083       .  S
C926        C929   1.364       .  A
S927        C928   1.726       .  A
C928        C929   1.384       .  A
C929        H935   1.083       .  S
S930        C931   1.720       .  A
C931        C932   1.390       .  A
C932        H936   1.082       .  S
C937        S943   1.697       .  A
C937        C942   1.388       .  A
C937        C938   1.396       .  A
C938        C939   1.396       .  A
C938        H949   1.083       .  S
C939        C948   1.364       .  A
C939        C940   1.386       .  A
C940        S946   1.714       .  A
C940        C941   1.408       .  A
C941        C942   1.408       .  A
C941        H950   1.083       .  S
C942        C945   1.378       .  A
S943        C944   1.721       .  A
C944        C945   1.390       .  A
C945        H951   1.083       .  S
S946        C947   1.727       .  A
C947        C948   1.383       .  A
C948        H952   1.083       .  S
C953        S959   1.720       .  A
C953        C958   1.386       .  A
C953        C954   1.412       .  A
C954        C955   1.412       .  A
C954        H965   1.082       .  S
C955        C964   1.382       .  A
C955        C956   1.388       .  A
C956        S962   1.692       .  A
C956        C957   1.391       .  A
C957        C958   1.392       .  A
C957        H966   1.083       .  S
C958        C961   1.359       .  A
S959        C960   1.729       .  A
C960        C961   1.380       .  A
C961        H967   1.083       .  S
S962        C963   1.718       .  A
C963        C964   1.392       .  A
C964        H968   1.083       .  S
C969        S975   1.701       .  A
C969        C974   1.387       .  A
C969        C970   1.397       .  A
C970        C971   1.398       .  A
C970        H981   1.083       .  S
C971        C980   1.365       .  A
C971        C972   1.384       .  A
C972        S978   1.714       .  A
C972        C973   1.408       .  A
C973        C974   1.409       .  A
C973        H982   1.083       .  S
C974        C977   1.377       .  A
S975        C976   1.722       .  A
C976        C977   1.391       .  A
C977        H983   1.083       .  S
S978        C979   1.730       .  A
C979        C980   1.389       .  A
C980        H984   1.080       .  S
C985        S991   1.696       .  A
C985        C990   1.387       .  A
C985        C986   1.393       .  A
C986        C987   1.395       .  A
C986        H997   1.084       .  S
C987        C996   1.361       .  A
C987        C988   1.385       .  A
C988        S994   1.723       .  A
C988        C989   1.412       .  A
C989        C990   1.413       .  A
C989        H998   1.083       .  S
C990        C993   1.381       .  A
S991        C992   1.721       .  A
C992        C993   1.394       .  A
C993        H999   1.082       .  S
S994        C995   1.728       .  A
C995        C996   1.383       .  A
C996       H1000   1.084       .  S
C1001      S1007   1.701       .  A
C1001      C1006   1.388       .  A
C1001      C1002   1.396       .  A
C1002      C1003   1.398       .  A
C1002      H1013   1.083       .  S
C1003      C1012   1.364       .  A
C1003      C1004   1.386       .  A
C1004      S1010   1.718       .  A
C1004      C1005   1.409       .  A
C1005      C1006   1.410       .  A
C1005      H1014   1.082       .  S
C1006      C1009   1.379       .  A
S1007      C1008   1.720       .  A
C1008      C1009   1.390       .  A
C1009      H1015   1.082       .  S
S1010      C1011   1.727       .  A
C1011      C1012   1.385       .  A
C1012      H1016   1.083       .  S
C1017      S1023   1.700       .  A
C1017      C1022   1.387       .  A
C1017      C1018   1.396       .  A
C1018      C1019   1.398       .  A
C1018      H1029   1.083       .  S
C1019      C1028   1.363       .  A
C1019      C1020   1.384       .  A
C1020      S1026   1.718       .  A
C1020      C1021   1.410       .  A
C1021      C1022   1.411       .  A
C1021      H1030   1.083       .  S
C1022      C1025   1.380       .  A
S1023      C1024   1.722       .  A
C1024      C1025   1.392       .  A
C1025      H1031   1.083       .  S
S1026      C1027   1.729       .  A
C1027      C1028   1.388       .  A
C1028      H1032   1.081       .  S
C1033      S1039   1.716       .  A
C1033      C1038   1.386       .  A
C1033      C1034   1.408       .  A
C1034      C1035   1.409       .  A
C1034      H1045   1.083       .  S
C1035      C1044   1.378       .  A
C1035      C1036   1.388       .  A
C1036      S1042   1.697       .  A
C1036      C1037   1.395       .  A
C1037      C1038   1.396       .  A
C1037      H1046   1.083       .  S
C1038      C1041   1.363       .  A
S1039      C1040   1.726       .  A
C1040      C1041   1.384       .  A
C1041      H1047   1.083       .  S
S1042      C1043   1.720       .  A
C1043      C1044   1.389       .  A
C1044      H1048   1.083       .  S
C1049      S1055   1.715       .  A
C1049      C1054   1.386       .  A
C1049      C1050   1.409       .  A
C1050      C1051   1.409       .  A
C1050      H1061   1.083       .  S
C1051      C1060   1.381       .  A
C1051      C1052   1.387       .  A
C1052      S1058   1.699       .  A
C1052      C1053   1.397       .  A
C1053      C1054   1.397       .  A
C1053      H1062   1.083       .  S
C1054      C1057   1.366       .  A
S1055      C1056   1.727       .  A
C1056      C1057   1.385       .  A
C1057      H1063   1.083       .  S
S1058      C1059   1.721       .  A
C1059      C1060   1.390       .  A
C1060      H1064   1.083       .  S
C1065      S1071   1.700       .  A
C1065      C1070   1.386       .  A
C1065      C1066   1.398       .  A
C1066      C1067   1.399       .  A
C1066      H1077   1.083       .  S
C1067      C1076   1.367       .  A
C1067      C1068   1.386       .  A
C1068      S1074   1.716       .  A
C1068      C1069   1.407       .  A
C1069      C1070   1.408       .  A
C1069      H1078   1.083       .  S
C1070      C1073   1.377       .  A
S1071      C1072   1.724       .  A
C1072      C1073   1.391       .  A
C1073      H1079   1.082       .  S
S1074      C1075   1.726       .  A
C1075      C1076   1.387       .  A
C1076      H1080   1.084       .  S
C1081      S1087   1.718       .  A
C1081      C1086   1.386       .  A
C1081      C1082   1.410       .  A
C1082      C1083   1.410       .  A
C1082      H1093   1.083       .  S
C1083      C1092   1.380       .  A
C1083      C1084   1.387       .  A
C1084      S1090   1.698       .  A
C1084      C1085   1.395       .  A
C1085      C1086   1.396       .  A
C1085      H1094   1.084       .  S
C1086      C1089   1.365       .  A
S1087      C1088   1.727       .  A
C1088      C1089   1.382       .  A
C1089      H1095   1.084       .  S
S1090      C1091   1.720       .  A
C1091      C1092   1.391       .  A
C1092      H1096   1.083       .  S
C1097      S1103   1.714       .  A
C1097      C1102   1.386       .  A
C1097      C1098   1.409       .  A
C1098      C1099   1.408       .  A
C1098      H1109   1.083       .  S
C1099      C1108   1.381       .  A
C1099      C1100   1.386       .  A
C1100      S1106   1.697       .  A
C1100      C1101   1.399       .  A
C1101      C1102   1.398       .  A
C1101      H1110   1.084       .  S
C1102      C1105   1.370       .  A
S1103      C1104   1.727       .  A
C1104      C1105   1.385       .  A
C1105      H1111   1.084       .  S
S1106      C1107   1.725       .  A
C1107      C1108   1.392       .  A
C1108      H1112   1.083       .  S
C1113      S1119   1.713       .  A
C1113      C1118   1.387       .  A
C1113      C1114   1.404       .  A
C1114      C1115   1.406       .  A
C1114      H1125   1.083       .  S
C1115      C1124   1.372       .  A
C1115      C1116   1.388       .  A
C1116      S1122   1.695       .  A
C1116      C1117   1.391       .  A
C1117      C1118   1.393       .  A
C1117      H1126   1.084       .  S
C1118      C1121   1.358       .  A
S1119      C1120   1.723       .  A
C1120      C1121   1.380       .  A
C1121      H1127   1.084       .  S
S1122      C1123   1.716       .  A
C1123      C1124   1.386       .  A
C1124      H1128   1.083       .  S
C1129      S1135   1.712       .  A
C1129      C1134   1.384       .  A
C1129      C1130   1.411       .  A
C1130      C1131   1.410       .  A
C1130      H1141   1.083       .  S
C1131      C1140   1.384       .  A
C1131      C1132   1.381       .  A
C1132      S1138   1.703       .  A
C1132      C1133   1.407       .  A
C1133      C1134   1.406       .  A
C1133      H1142   1.083       .  S
C1134      C1137   1.381       .  A
S1135      C1136   1.733       .  A
C1136      C1137   1.395       .  A
C1137      H1143   1.080       .  S
S1138      C1139   1.739       .  A
C1139      C1140   1.405       .  A
C1140      H1144   1.079       .  S
C1145      S1151   1.709       .  A
C1145      C1150   1.384       .  A
C1145      C1146   1.408       .  A
C1146      C1147   1.408       .  A
C1146      H1157   1.083       .  S
C1147      C1156   1.379       .  A
C1147      C1148   1.385       .  A
C1148      S1154   1.707       .  A
C1148      C1149   1.405       .  A
C1149      C1150   1.404       .  A
C1149      H1158   1.083       .  S
C1150      C1153   1.376       .  A
S1151      C1152   1.738       .  A
C1152      C1153   1.396       .  A
C1153      H1159   1.083       .  S
S1154      C1155   1.730       .  A
C1155      C1156   1.394       .  A
C1156      H1160   1.083       .  S
C1161      S1167   1.709       .  A
C1161      C1166   1.384       .  A
C1161      C1162   1.409       .  A
C1162      C1163   1.408       .  A
C1162      H1173   1.083       .  S
C1163      C1172   1.381       .  A
C1163      C1164   1.385       .  A
C1164      S1170   1.705       .  A
C1164      C1165   1.405       .  A
C1165      C1166   1.404       .  A
C1165      H1174   1.083       .  S
C1166      C1169   1.377       .  A
S1167      C1168   1.738       .  A
C1168      C1169   1.396       .  A
C1169      H1175   1.083       .  S
S1170      C1171   1.731       .  A
C1171      C1172   1.394       .  A
C1172      H1176   1.083       .  S
C1177      S1183   1.701       .  A
C1177      C1182   1.382       .  A
C1177      C1178   1.403       .  A
C1178      C1179   1.403       .  A
C1178      H1189   1.083       .  S
C1179      C1188   1.373       .  A
C1179      C1180   1.385       .  A
C1180      S1186   1.707       .  A
C1180      C1181   1.405       .  A
C1181      C1182   1.405       .  A
C1181      H1190   1.083       .  S
C1182      C1185   1.375       .  A
S1183      C1184   1.739       .  A
C1184      C1185   1.398       .  A
C1185      H1191   1.079       .  S
S1186      C1187   1.729       .  A
C1187      C1188   1.390       .  A
C1188      H1192   1.083       .  S
C1193      S1199   1.706       .  A
C1193      C1198   1.383       .  A
C1193      C1194   1.403       .  A
C1194      C1195   1.404       .  A
C1194      H1205   1.083       .  S
C1195      C1204   1.372       .  A
C1195      C1196   1.385       .  A
C1196      S1202   1.702       .  A
C1196      C1197   1.399       .  A
C1197      C1198   1.401       .  A
C1197      H1206   1.083       .  S
C1198      C1201   1.368       .  A
S1199      C1200   1.735       .  A
C1200      C1201   1.394       .  A
C1201      H1207   1.080       .  S
S1202      C1203   1.726       .  A
C1203      C1204   1.392       .  A
C1204      H1208   1.080       .  S
C1209      S1215   1.710       .  A
C1209      C1214   1.383       .  A
C1209      C1210   1.406       .  A
C1210      C1211   1.406       .  A
C1210      H1221   1.083       .  S
C1211      C1220   1.376       .  A
C1211      C1212   1.385       .  A
C1212      S1218   1.710       .  A
C1212      C1213   1.405       .  A
C1213      C1214   1.406       .  A
C1213      H1222   1.083       .  S
C1214      C1217   1.375       .  A
S1215      C1216   1.735       .  A
C1216      C1217   1.398       .  A
C1217      H1223   1.083       .  S
S1218      C1219   1.730       .  A
C1219      C1220   1.392       .  A
C1220      H1224   1.083       .  S
C1225      S1231   1.693       .  A
C1225      C1230   1.384       .  A
C1225      C1226   1.399       .  A
C1226      C1227   1.397       .  A
C1226      H1237   1.083       .  S
C1227      C1236   1.371       .  A
C1227      C1228   1.385       .  A
C1228      S1234   1.707       .  A
C1228      C1229   1.409       .  A
C1229      C1230   1.407       .  A
C1229      H1238   1.083       .  S
C1230      C1233   1.380       .  A
S1231      C1232   1.735       .  A
C1232      C1233   1.398       .  A
C1233      H1239   1.083       .  S
S1234      C1235   1.734       .  A
C1235      C1236   1.385       .  A
C1236      H1240   1.083       .  S
C1241      S1247   1.700       .  A
C1241      C1246   1.387       .  A
C1241      C1242   1.394       .  A
C1242      C1243   1.396       .  A
C1242      H1253   1.083       .  S
C1243      C1252   1.361       .  A
C1243      C1244   1.386       .  A
C1244      S1250   1.719       .  A
C1244      C1245   1.409       .  A
C1245      C1246   1.410       .  A
C1245      H1254   1.083       .  S
C1246      C1249   1.377       .  A
S1247      C1248   1.718       .  A
C1248      C1249   1.391       .  A
C1249      H1255   1.083       .  S
S1250      C1251   1.726       .  A
C1251      C1252   1.383       .  A
C1252      H1256   1.083       .  S
C1257      S1263   1.701       .  A
C1257      C1262   1.384       .  A
C1257      C1258   1.402       .  A
C1258      C1259   1.402       .  A
C1258      H1269   1.083       .  S
C1259      C1268   1.371       .  A
C1259      C1260   1.385       .  A
C1260      S1266   1.710       .  A
C1260      C1261   1.406       .  A
C1261      C1262   1.406       .  A
C1261      H1270   1.083       .  S
C1262      C1265   1.376       .  A
S1263      C1264   1.735       .  A
C1264      C1265   1.396       .  A
C1265      H1271   1.083       .  S
S1266      C1267   1.729       .  A
C1267      C1268   1.389       .  A
C1268      H1272   1.083       .  S
C1273      S1279   1.695       .  A
C1273      C1278   1.387       .  A
C1273      C1274   1.397       .  A
C1274      C1275   1.397       .  A
C1274      H1285   1.084       .  S
C1275      C1284   1.368       .  A
C1275      C1276   1.386       .  A
C1276      S1282   1.716       .  A
C1276      C1277   1.411       .  A
C1277      C1278   1.410       .  A
C1277      H1286   1.083       .  S
C1278      C1281   1.384       .  A
S1279      C1280   1.725       .  A
C1280      C1281   1.393       .  A
C1281      H1287   1.083       .  S
S1282      C1283   1.728       .  A
C1283      C1284   1.384       .  A
C1284      H1288   1.084       .  S
C1289      S1295   1.714       .  A
C1289      C1294   1.383       .  A
C1289      C1290   1.409       .  A
C1290      C1291   1.410       .  A
C1290      H1301   1.083       .  S
C1291      C1300   1.379       .  A
C1291      C1292   1.383       .  A
C1292      S1298   1.710       .  A
C1292      C1293   1.406       .  A
C1293      C1294   1.407       .  A
C1293      H1302   1.083       .  S
C1294      C1297   1.377       .  A
S1295      C1296   1.732       .  A
C1296      C1297   1.397       .  A
C1297      H1303   1.079       .  S
S1298      C1299   1.739       .  A
C1299      C1300   1.402       .  A
C1300      H1304   1.082       .  S
C1305      S1311   1.715       .  A
C1305      C1310   1.386       .  A
C1305      C1306   1.408       .  A
C1306      C1307   1.409       .  A
C1306      H1317   1.083       .  S
C1307      C1316   1.379       .  A
C1307      C1308   1.388       .  A
C1308      S1314   1.697       .  A
C1308      C1309   1.395       .  A
C1309      C1310   1.395       .  A
C1309      H1318   1.083       .  S
C1310      C1313   1.364       .  A
S1311      C1312   1.726       .  A
C1312      C1313   1.381       .  A
C1313      H1319   1.083       .  S
S1314      C1315   1.720       .  A
C1315      C1316   1.390       .  A
C1316      H1320   1.083       .  S
C1321      S1327   1.698       .  A
C1321      C1326   1.385       .  A
C1321      C1322   1.399       .  A
C1322      C1323   1.398       .  A
C1322      H1333   1.083       .  S
C1323      C1332   1.369       .  A
C1323      C1324   1.384       .  A
C1324      S1330   1.709       .  A
C1324      C1325   1.408       .  A
C1325      C1326   1.408       .  A
C1325      H1334   1.083       .  S
C1326      C1329   1.379       .  A
S1327      C1328   1.728       .  A
C1328      C1329   1.393       .  A
C1329      H1335   1.083       .  S
S1330      C1331   1.738       .  A
C1331      C1332   1.391       .  A
C1332      H1336   1.083       .  S
C1337      S1343   1.698       .  A
C1337      C1342   1.387       .  A
C1337      C1338   1.397       .  A
C1338      C1339   1.397       .  A
C1338      H1349   1.084       .  S
C1339      C1348   1.365       .  A
C1339      C1340   1.385       .  A
C1340      S1346   1.716       .  A
C1340      C1341   1.409       .  A
C1341      C1342   1.410       .  A
C1341      H1350   1.083       .  S
C1342      C1345   1.380       .  A
S1343      C1344   1.722       .  A
C1344      C1345   1.391       .  A
C1345      H1351   1.083       .  S
S1346      C1347   1.728       .  A
C1347      C1348   1.386       .  A
C1348      H1352   1.083       .  S
C1353      S1359   1.708       .  A
C1353      C1358   1.384       .  A
C1353      C1354   1.403       .  A
C1354      C1355   1.405       .  A
C1354      H1365   1.082       .  S
C1355      C1364   1.373       .  A
C1355      C1356   1.380       .  A
C1356      S1362   1.710       .  A
C1356      C1357   1.408       .  A
C1357      C1358   1.409       .  A
C1357      H1366   1.082       .  S
C1358      C1361   1.377       .  A
S1359      C1360   1.728       .  A
C1360      C1361   1.398       .  A
C1361      H1367   1.080       .  S
S1362      C1363   1.738       .  A
C1363      C1364   1.401       .  A
C1364      H1368   1.078       .  S
C1369      S1375   1.719       .  A
C1369      C1374   1.386       .  A
C1369      C1370   1.412       .  A
C1370      C1371   1.412       .  A
C1370      H1381   1.083       .  S
C1371      C1380   1.383       .  A
C1371      C1372   1.387       .  A
C1372      S1378   1.690       .  A
C1372      C1373   1.392       .  A
C1373      C1374   1.392       .  A
C1373      H1382   1.084       .  S
C1374      C1377   1.362       .  A
S1375      C1376   1.730       .  A
C1376      C1377   1.381       .  A
C1377      H1383   1.084       .  S
S1378      C1379   1.720       .  A
C1379      C1380   1.394       .  A
C1380      H1384   1.083       .  S
C1385      S1391   1.698       .  A
C1385      C1390   1.388       .  A
C1385      C1386   1.396       .  A
C1386      C1387   1.397       .  A
C1386      H1397   1.084       .  S
C1387      C1396   1.365       .  A
C1387      C1388   1.387       .  A
C1388      S1394   1.714       .  A
C1388      C1389   1.407       .  A
C1389      C1390   1.407       .  A
C1389      H1398   1.083       .  S
C1390      C1393   1.377       .  A
S1391      C1392   1.721       .  A
C1392      C1393   1.388       .  A
C1393      H1399   1.083       .  S
S1394      C1395   1.725       .  A
C1395      C1396   1.383       .  A
C1396      H1400   1.084       .  S
C1401      S1407   1.715       .  A
C1401      C1406   1.386       .  A
C1401      C1402   1.409       .  A
C1402      C1403   1.409       .  A
C1402      H1413   1.083       .  S
C1403      C1412   1.381       .  A
C1403      C1404   1.387       .  A
C1404      S1410   1.693       .  A
C1404      C1405   1.395       .  A
C1405      C1406   1.395       .  A
C1405      H1414   1.084       .  S
C1406      C1409   1.365       .  A
S1407      C1408   1.727       .  A
C1408      C1409   1.382       .  A
C1409      H1415   1.084       .  S
S1410      C1411   1.722       .  A
C1411      C1412   1.392       .  A
C1412      H1416   1.083       .  S
C1417      S1423   1.700       .  A
C1417      C1422   1.386       .  A
C1417      C1418   1.399       .  A
C1418      C1419   1.400       .  A
C1418      H1429   1.084       .  S
C1419      C1428   1.370       .  A
C1419      C1420   1.386       .  A
C1420      S1426   1.718       .  A
C1420      C1421   1.410       .  A
C1421      C1422   1.410       .  A
C1421      H1430   1.083       .  S
C1422      C1425   1.381       .  A
S1423      C1424   1.724       .  A
C1424      C1425   1.393       .  A
C1425      H1431   1.083       .  S
S1426      C1427   1.728       .  A
C1427      C1428   1.387       .  A
C1428      H1432   1.084       .  S
C1433      S1439   1.717       .  A
C1433      C1438   1.386       .  A
C1433      C1434   1.409       .  A
C1434      C1435   1.409       .  A
C1434      H1445   1.083       .  S
C1435      C1444   1.378       .  A
C1435      C1436   1.387       .  A
C1436      S1442   1.697       .  A
C1436      C1437   1.396       .  A
C1437      C1438   1.397       .  A
C1437      H1446   1.084       .  S
C1438      C1441   1.365       .  A
S1439      C1440   1.726       .  A
C1440      C1441   1.384       .  A
C1441      H1447   1.084       .  S
S1442      C1443   1.721       .  A
C1443      C1444   1.389       .  A
C1444      H1448   1.083       .  S
C1449      S1455   1.699       .  A
C1449      C1454   1.387       .  A
C1449      C1450   1.396       .  A
C1450      C1451   1.397       .  A
C1450      H1461   1.083       .  S
C1451      C1460   1.364       .  A
C1451      C1452   1.385       .  A
C1452      S1458   1.722       .  A
C1452      C1453   1.413       .  A
C1453      C1454   1.413       .  A
C1453      H1462   1.083       .  S
C1454      C1457   1.383       .  A
S1455      C1456   1.720       .  A
C1456      C1457   1.394       .  A
C1457      H1463   1.083       .  S
S1458      C1459   1.730       .  A
C1459      C1460   1.386       .  A
C1460      H1464   1.082       .  S
C1465      S1471   1.714       .  A
C1465      C1470   1.386       .  A
C1465      C1466   1.407       .  A
C1466      C1467   1.407       .  A
C1466      H1477   1.083       .  S
C1467      C1476   1.378       .  A
C1467      C1468   1.387       .  A
C1468      S1474   1.697       .  A
C1468      C1469   1.397       .  A
C1469      C1470   1.398       .  A
C1469      H1478   1.084       .  S
C1470      C1473   1.367       .  A
S1471      C1472   1.725       .  A
C1472      C1473   1.385       .  A
C1473      H1479   1.084       .  S
S1474      C1475   1.723       .  A
C1475      C1476   1.390       .  A
C1476      H1480   1.083       .  S
C1481      S1487   1.716       .  A
C1481      C1486   1.386       .  A
C1481      C1482   1.407       .  A
C1482      C1483   1.408       .  A
C1482      H1493   1.083       .  S
C1483      C1492   1.377       .  A
C1483      C1484   1.387       .  A
C1484      S1490   1.703       .  A
C1484      C1485   1.398       .  A
C1485      C1486   1.399       .  A
C1485      H1494   1.083       .  S
C1486      C1489   1.366       .  A
S1487      C1488   1.725       .  A
C1488      C1489   1.385       .  A
C1489      H1495   1.083       .  S
S1490      C1491   1.721       .  A
C1491      C1492   1.389       .  A
C1492      H1496   1.083       .  S
C1497      S1503   1.701       .  A
C1497      C1502   1.388       .  A
C1497      C1498   1.397       .  A
C1498      C1499   1.398       .  A
C1498      H1509   1.084       .  S
C1499      C1508   1.365       .  A
C1499      C1500   1.387       .  A
C1500      S1506   1.714       .  A
C1500      C1501   1.406       .  A
C1501      C1502   1.407       .  A
C1501      H1510   1.083       .  S
C1502      C1505   1.376       .  A
S1503      C1504   1.720       .  A
C1504      C1505   1.389       .  A
C1505      H1511   1.083       .  S
S1506      C1507   1.724       .  A
C1507      C1508   1.383       .  A
C1508      H1512   1.084       .  S
C1513      S1519   1.699       .  A
C1513      C1518   1.386       .  A
C1513      C1514   1.397       .  A
C1514      C1515   1.398       .  A
C1514      H1525   1.084       .  S
C1515      C1524   1.367       .  A
C1515      C1516   1.386       .  A
C1516      S1522   1.719       .  A
C1516      C1517   1.411       .  A
C1517      C1518   1.411       .  A
C1517      H1526   1.083       .  S
C1518      C1521   1.382       .  A
S1519      C1520   1.724       .  A
C1520      C1521   1.393       .  A
C1521      H1527   1.082       .  S
S1522      C1523   1.729       .  A
C1523      C1524   1.386       .  A
C1524      H1528   1.084       .  S
C1529      S1535   1.716       .  A
C1529      C1534   1.387       .  A
C1529      C1530   1.408       .  A
C1530      C1531   1.407       .  A
C1530      H1541   1.095       .  S
C1531      C1540   1.380       .  A
C1531      C1532   1.389       .  A
C1532      S1538   1.697       .  A
C1532      C1533   1.395       .  A
C1533      C1534   1.395       .  A
C1533      H1542   1.095       .  S
C1534      C1537   1.365       .  A
S1535      C1536   1.727       .  A
C1536      C1537   1.383       .  A
C1537      H1543   1.090       .  S
S1538      C1539   1.722       .  A
C1539      C1540   1.389       .  A
C1540      H1544   1.092       .  S
C1545      S1551   1.706       .  A
C1545      C1550   1.385       .  A
C1545      C1546   1.405       .  A
C1546      C1547   1.404       .  A
C1546      H1557   1.083       .  S
C1547      C1556   1.376       .  A
C1547      C1548   1.383       .  A
C1548      S1554   1.708       .  A
C1548      C1549   1.407       .  A
C1549      C1550   1.407       .  A
C1549      H1558   1.083       .  S
C1550      C1553   1.379       .  A
S1551      C1552   1.730       .  A
C1552      C1553   1.393       .  A
C1553      H1559   1.083       .  S
S1554      C1555   1.737       .  A
C1555      C1556   1.396       .  A
C1556      H1560   1.083       .  S
C1561      S1567   1.718       .  A
C1561      C1566   1.386       .  A
C1561      C1562   1.412       .  A
C1562      C1563   1.411       .  A
C1562      H1573   1.083       .  S
C1563      C1572   1.383       .  A
C1563      C1564   1.387       .  A
C1564      S1570   1.693       .  A
C1564      C1565   1.395       .  A
C1565      C1566   1.395       .  A
C1565      H1574   1.084       .  S
C1566      C1569   1.365       .  A
S1567      C1568   1.729       .  A
C1568      C1569   1.383       .  A
C1569      H1575   1.084       .  S
S1570      C1571   1.723       .  A
C1571      C1572   1.393       .  A
C1572      H1576   1.083       .  S
C1577      S1583   1.699       .  A
C1577      C1582   1.387       .  A
C1577      C1578   1.400       .  A
C1578      C1579   1.399       .  A
C1578      H1589   1.083       .  S
C1579      C1588   1.372       .  A
C1579      C1580   1.386       .  A
C1580      S1586   1.716       .  A
C1580      C1581   1.411       .  A
C1581      C1582   1.410       .  A
C1581      H1590   1.083       .  S
C1582      C1585   1.384       .  A
S1583      C1584   1.723       .  A
C1584      C1585   1.391       .  A
C1585      H1591   1.083       .  S
S1586      C1587   1.728       .  A
C1587      C1588   1.385       .  A
C1588      H1592   1.083       .  S
C1593      S1599   1.699       .  A
C1593      C1598   1.387       .  A
C1593      C1594   1.398       .  A
C1594      C1595   1.398       .  A
C1594      H1605   1.084       .  S
C1595      C1604   1.368       .  A
C1595      C1596   1.387       .  A
C1596      S1602   1.712       .  A
C1596      C1597   1.406       .  A
C1597      C1598   1.406       .  A
C1597      H1606   1.083       .  S
C1598      C1601   1.377       .  A
S1599      C1600   1.723       .  A
C1600      C1601   1.389       .  A
C1601      H1607   1.083       .  S
S1602      C1603   1.725       .  A
C1603      C1604   1.384       .  A
C1604      H1608   1.084       .  S
C1609      S1615   1.712       .  A
C1609      C1614   1.385       .  A
C1609      C1610   1.410       .  A
C1610      C1611   1.409       .  A
C1610      H1621   1.083       .  S
C1611      C1620   1.381       .  A
C1611      C1612   1.383       .  A
C1612      S1618   1.708       .  A
C1612      C1613   1.407       .  A
C1613      C1614   1.406       .  A
C1613      H1622   1.083       .  S
C1614      C1617   1.380       .  A
S1615      C1616   1.734       .  A
C1616      C1617   1.392       .  A
C1617      H1623   1.083       .  S
S1618      C1619   1.736       .  A
C1619      C1620   1.400       .  A
C1620      H1624   1.083       .  S
C1625      S1631   1.718       .  A
C1625      C1630   1.386       .  A
C1625      C1626   1.410       .  A
C1626      C1627   1.410       .  A
C1626      H1637   1.083       .  S
C1627      C1636   1.381       .  A
C1627      C1628   1.388       .  A
C1628      S1634   1.699       .  A
C1628      C1629   1.397       .  A
C1629      C1630   1.397       .  A
C1629      H1638   1.083       .  S
C1630      C1633   1.367       .  A
S1631      C1632   1.727       .  A
C1632      C1633   1.383       .  A
C1633      H1639   1.083       .  S
S1634      C1635   1.721       .  A
C1635      C1636   1.391       .  A
C1636      H1640   1.083       .  S
C1641      S1647   1.718       .  A
C1641      C1646   1.385       .  A
C1641      C1642   1.409       .  A
C1642      C1643   1.410       .  A
C1642      H1653   1.083       .  S
C1643      C1652   1.379       .  A
C1643      C1644   1.387       .  A
C1644      S1650   1.702       .  A
C1644      C1645   1.397       .  A
C1645      C1646   1.399       .  A
C1645      H1654   1.083       .  S
C1646      C1649   1.366       .  A
S1647      C1648   1.728       .  A
C1648      C1649   1.386       .  A
C1649      H1655   1.083       .  S
S1650      C1651   1.720       .  A
C1651      C1652   1.391       .  A
C1652      H1656   1.083       .  S
C1657      S1663   1.700       .  A
C1657      C1662   1.386       .  A
C1657      C1658   1.400       .  A
C1658      C1659   1.400       .  A
C1658      H1669   1.084       .  S
C1659      C1668   1.371       .  A
C1659      C1660   1.386       .  A
C1660      S1666   1.719       .  A
C1660      C1661   1.411       .  A
C1661      C1662   1.411       .  A
C1661      H1670   1.083       .  S
C1662      C1665   1.384       .  A
S1663      C1664   1.726       .  A
C1664      C1665   1.393       .  A
C1665      H1671   1.083       .  S
S1666      C1667   1.728       .  A
C1667      C1668   1.387       .  A
C1668      H1672   1.084       .  S
C1673      S1679   1.715       .  A
C1673      C1678   1.384       .  A
C1673      C1674   1.413       .  A
C1674      C1675   1.412       .  A
C1674      H1685   1.082       .  S
C1675      C1684   1.386       .  A
C1675      C1676   1.384       .  A
C1676      S1682   1.703       .  A
C1676      C1677   1.405       .  A
C1677      C1678   1.404       .  A
C1677      H1686   1.083       .  S
C1678      C1681   1.378       .  A
S1679      C1680   1.734       .  A
C1680      C1681   1.395       .  A
C1681      H1687   1.080       .  S
S1682      C1683   1.737       .  A
C1683      C1684   1.401       .  A
C1684      H1688   1.081       .  S
C1689      S1695   1.717       .  A
C1689      C1694   1.385       .  A
C1689      C1690   1.411       .  A
C1690      C1691   1.411       .  A
C1690      H1701   1.083       .  S
C1691      C1700   1.382       .  A
C1691      C1692   1.387       .  A
C1692      S1698   1.700       .  A
C1692      C1693   1.398       .  A
C1693      C1694   1.398       .  A
C1693      H1702   1.083       .  S
C1694      C1697   1.368       .  A
S1695      C1696   1.729       .  A
C1696      C1697   1.387       .  A
C1697      H1703   1.082       .  S
S1698      C1699   1.722       .  A
C1699      C1700   1.393       .  A
C1700      H1704   1.083       .  S
C1705      S1711   1.700       .  A
C1705      C1710   1.387       .  A
C1705      C1706   1.400       .  A
C1706      C1707   1.400       .  A
C1706      H1717   1.084       .  S
C1707      C1716   1.372       .  A
C1707      C1708   1.386       .  A
C1708      S1714   1.714       .  A
C1708      C1709   1.408       .  A
C1709      C1710   1.408       .  A
C1709      H1718   1.083       .  S
C1710      C1713   1.380       .  A
S1711      C1712   1.725       .  A
C1712      C1713   1.390       .  A
C1713      H1719   1.083       .  S
S1714      C1715   1.727       .  A
C1715      C1716   1.386       .  A
C1716      H1720   1.084       .  S
C1721      S1727   1.716       .  A
C1721      C1726   1.386       .  A
C1721      C1722   1.407       .  A
C1722      C1723   1.408       .  A
C1722      H1733   1.083       .  S
C1723      C1732   1.376       .  A
C1723      C1724   1.387       .  A
C1724      S1730   1.702       .  A
C1724      C1725   1.397       .  A
C1725      C1726   1.398       .  A
C1725      H1734   1.084       .  S
C1726      C1729   1.364       .  A
S1727      C1728   1.725       .  A
C1728      C1729   1.384       .  A
C1729      H1735   1.084       .  S
S1730      C1731   1.720       .  A
C1731      C1732   1.389       .  A
C1732      H1736   1.083       .  S
C1737      S1743   1.708       .  A
C1737      C1742   1.385       .  A
C1737      C1738   1.405       .  A
C1738      C1739   1.405       .  A
C1738      H1749   1.083       .  S
C1739      C1748   1.377       .  A
C1739      C1740   1.383       .  A
C1740      S1746   1.709       .  A
C1740      C1741   1.408       .  A
C1741      C1742   1.408       .  A
C1741      H1750   1.083       .  S
C1742      C1745   1.380       .  A
S1743      C1744   1.731       .  A
C1744      C1745   1.394       .  A
C1745      H1751   1.083       .  S
S1746      C1747   1.738       .  A
C1747      C1748   1.396       .  A
C1748      H1752   1.083       .  S
C1753      S1759   1.699       .  A
C1753      C1758   1.387       .  A
C1753      C1754   1.398       .  A
C1754      C1755   1.399       .  A
C1754      H1765   1.083       .  S
C1755      C1764   1.368       .  A
C1755      C1756   1.387       .  A
C1756      S1762   1.714       .  A
C1756      C1757   1.407       .  A
C1757      C1758   1.407       .  A
C1757      H1766   1.083       .  S
C1758      C1761   1.378       .  A
S1759      C1760   1.719       .  A
C1760      C1761   1.388       .  A
C1761      H1767   1.083       .  S
S1762      C1763   1.723       .  A
C1763      C1764   1.383       .  A
C1764      H1768   1.084       .  S
C1769      S1775   1.697       .  A
C1769      C1774   1.385       .  A
C1769      C1770   1.396       .  A
C1770      C1771   1.397       .  A
C1770      H1781   1.083       .  S
C1771      C1780   1.366       .  A
C1771      C1772   1.385       .  A
C1772      S1778   1.721       .  A
C1772      C1773   1.412       .  A
C1773      C1774   1.412       .  A
C1773      H1782   1.083       .  S
C1774      C1777   1.382       .  A
S1775      C1776   1.724       .  A
C1776      C1777   1.397       .  A
C1777      H1783   1.082       .  S
S1778      C1779   1.730       .  A
C1779      C1780   1.385       .  A
C1780      H1784   1.083       .  S
C1785      S1791   1.722       .  A
C1785      C1790   1.383       .  A
C1785      C1786   1.413       .  A
C1786      C1787   1.413       .  A
C1786      H1797   1.082       .  S
C1787      C1796   1.383       .  A
C1787      C1788   1.387       .  A
C1788      S1794   1.700       .  A
C1788      C1789   1.396       .  A
C1789      C1790   1.398       .  A
C1789      H1798   1.083       .  S
C1790      C1793   1.364       .  A
S1791      C1792   1.731       .  A
C1792      C1793   1.387       .  A
C1793      H1799   1.078       .  S
S1794      C1795   1.720       .  A
C1795      C1796   1.393       .  A
C1796      H1800   1.082       .  S
C1801      S1807   1.710       .  A
C1801      C1806   1.384       .  A
C1801      C1802   1.407       .  A
C1802      C1803   1.407       .  A
C1802      H1813   1.083       .  S
C1803      C1812   1.378       .  A
C1803      C1804   1.384       .  A
C1804      S1810   1.706       .  A
C1804      C1805   1.405       .  A
C1805      C1806   1.405       .  A
C1805      H1814   1.083       .  S
C1806      C1809   1.377       .  A
S1807      C1808   1.731       .  A
C1808      C1809   1.394       .  A
C1809      H1815   1.080       .  S
S1810      C1811   1.736       .  A
C1811      C1812   1.398       .  A
C1812      H1816   1.081       .  S
C1817      S1823   1.693       .  A
C1817      C1822   1.386       .  A
C1817      C1818   1.395       .  A
C1818      C1819   1.395       .  A
C1818      H1829   1.084       .  S
C1819      C1828   1.365       .  A
C1819      C1820   1.385       .  A
C1820      S1826   1.722       .  A
C1820      C1821   1.414       .  A
C1821      C1822   1.414       .  A
C1821      H1830   1.083       .  S
C1822      C1825   1.386       .  A
S1823      C1824   1.723       .  A
C1824      C1825   1.396       .  A
C1825      H1831   1.083       .  S
S1826      C1827   1.730       .  A
C1827      C1828   1.385       .  A
C1828      H1832   1.084       .  S
C1833      S1839   1.695       .  A
C1833      C1838   1.386       .  A
C1833      C1834   1.395       .  A
C1834      C1835   1.396       .  A
C1834      H1845   1.084       .  S
C1835      C1844   1.364       .  A
C1835      C1836   1.386       .  A
C1836      S1842   1.716       .  A
C1836      C1837   1.408       .  A
C1837      C1838   1.408       .  A
C1837      H1846   1.083       .  S
C1838      C1841   1.378       .  A
S1839      C1840   1.723       .  A
C1840      C1841   1.393       .  A
C1841      H1847   1.082       .  S
S1842      C1843   1.727       .  A
C1843      C1844   1.384       .  A
C1844      H1848   1.084       .  S
C1849      S1855   1.717       .  A
C1849      C1854   1.386       .  A
C1849      C1850   1.410       .  A
C1850      C1851   1.410       .  A
C1850      H1861   1.083       .  S
C1851      C1860   1.382       .  A
C1851      C1852   1.388       .  A
C1852      S1858   1.697       .  A
C1852      C1853   1.396       .  A
C1853      C1854   1.397       .  A
C1853      H1862   1.083       .  S
C1854      C1857   1.366       .  A
S1855      C1856   1.726       .  A
C1856      C1857   1.383       .  A
C1857      H1863   1.084       .  S
S1858      C1859   1.720       .  A
C1859      C1860   1.390       .  A
C1860      H1864   1.083       .  S
C1865      S1871   1.701       .  A
C1865      C1870   1.381       .  A
C1865      C1866   1.404       .  A
C1866      C1867   1.404       .  A
C1866      H1877   1.083       .  S
C1867      C1876   1.377       .  A
C1867      C1868   1.385       .  A
C1868      S1874   1.708       .  A
C1868      C1869   1.407       .  A
C1869      C1870   1.407       .  A
C1869      H1878   1.083       .  S
C1870      C1873   1.378       .  A
S1871      C1872   1.739       .  A
C1872      C1873   1.404       .  A
C1873      H1879   1.080       .  S
S1874      C1875   1.732       .  A
C1875      C1876   1.392       .  A
C1876      H1880   1.081       .  S
C1881      S1887   1.720       .  A
C1881      C1886   1.385       .  A
C1881      C1882   1.410       .  A
C1882      C1883   1.411       .  A
C1882      H1893   1.083       .  S
C1883      C1892   1.381       .  A
C1883      C1884   1.387       .  A
C1884      S1890   1.700       .  A
C1884      C1885   1.396       .  A
C1885      C1886   1.397       .  A
C1885      H1894   1.084       .  S
C1886      C1889   1.363       .  A
S1887      C1888   1.727       .  A
C1888      C1889   1.384       .  A
C1889      H1895   1.084       .  S
S1890      C1891   1.720       .  A
C1891      C1892   1.392       .  A
C1892      H1896   1.083       .  S
C1897      S1903   1.694       .  A
C1897      C1902   1.387       .  A
C1897      C1898   1.396       .  A
C1898      C1899   1.396       .  A
C1898      H1909   1.084       .  S
C1899      C1908   1.366       .  A
C1899      C1900   1.386       .  A
C1900      S1906   1.716       .  A
C1900      C1901   1.410       .  A
C1901      C1902   1.410       .  A
C1901      H1910   1.083       .  S
C1902      C1905   1.381       .  A
S1903      C1904   1.722       .  A
C1904      C1905   1.391       .  A
C1905      H1911   1.083       .  S
S1906      C1907   1.728       .  A
C1907      C1908   1.383       .  A
C1908      H1912   1.084       .  S
C1913      S1919   1.696       .  A
C1913      C1918   1.387       .  A
C1913      C1914   1.396       .  A
C1914      C1915   1.396       .  A
C1914      H1925   1.084       .  S
C1915      C1924   1.366       .  A
C1915      C1916   1.386       .  A
C1916      S1922   1.715       .  A
C1916      C1917   1.409       .  A
C1917      C1918   1.409       .  A
C1917      H1926   1.083       .  S
C1918      C1921   1.380       .  A
S1919      C1920   1.723       .  A
C1920      C1921   1.391       .  A
C1921      H1927   1.083       .  S
S1922      C1923   1.727       .  A
C1923      C1924   1.383       .  A
C1924      H1928   1.084       .  S
C1929      S1935   1.708       .  A
C1929      C1934   1.384       .  A
C1929      C1930   1.403       .  A
C1930      C1931   1.404       .  A
C1930      H1941   1.083       .  S
C1931      C1940   1.374       .  A
C1931      C1932   1.385       .  A
C1932      S1938   1.713       .  A
C1932      C1933   1.407       .  A
C1933      C1934   1.408       .  A
C1933      H1942   1.083       .  S
C1934      C1937   1.375       .  A
S1935      C1936   1.732       .  A
C1936      C1937   1.398       .  A
C1937      H1943   1.083       .  S
S1938      C1939   1.731       .  A
C1939      C1940   1.390       .  A
C1940      H1944   1.083       .  S
C1945      S1951   1.700       .  A
C1945      C1950   1.387       .  A
C1945      C1946   1.398       .  A
C1946      C1947   1.398       .  A
C1946      H1957   1.084       .  S
C1947      C1956   1.368       .  A
C1947      C1948   1.387       .  A
C1948      S1954   1.718       .  A
C1948      C1949   1.409       .  A
C1949      C1950   1.410       .  A
C1949      H1958   1.083       .  S
C1950      C1953   1.380       .  A
S1951      C1952   1.721       .  A
C1952      C1953   1.390       .  A
C1953      H1959   1.083       .  S
S1954      C1955   1.725       .  A
C1955      C1956   1.383       .  A
C1956      H1960   1.084       .  S
C1961      S1967   1.696       .  A
C1961      C1966   1.386       .  A
C1961      C1962   1.396       .  A
C1962      C1963   1.396       .  A
C1962      H1973   1.084       .  S
C1963      C1972   1.365       .  A
C1963      C1964   1.386       .  A
C1964      S1970   1.717       .  A
C1964      C1965   1.410       .  A
C1965      C1966   1.410       .  A
C1965      H1974   1.083       .  S
C1966      C1969   1.380       .  A
S1967      C1968   1.723       .  A
C1968      C1969   1.394       .  A
C1969      H1975   1.082       .  S
S1970      C1971   1.728       .  A
C1971      C1972   1.384       .  A
C1972      H1976   1.084       .  S
C1977      S1983   1.720       .  A
C1977      C1982   1.385       .  A
C1977      C1978   1.412       .  A
C1978      C1979   1.412       .  A
C1978      H1989   1.083       .  S
C1979      C1988   1.382       .  A
C1979      C1980   1.387       .  A
C1980      S1986   1.698       .  A
C1980      C1981   1.395       .  A
C1981      C1982   1.396       .  A
C1981      H1990   1.083       .  S
C1982      C1985   1.364       .  A
S1983      C1984   1.729       .  A
C1984      C1985   1.385       .  A
C1985      H1991   1.083       .  S
S1986      C1987   1.721       .  A
C1987      C1988   1.393       .  A
C1988      H1992   1.082       .  S
C1993      S1999   1.705       .  A
C1993      C1998   1.383       .  A
C1993      C1994   1.405       .  A
C1994      C1995   1.405       .  A
C1994      H2005   1.083       .  S
C1995      C2004   1.377       .  A
C1995      C1996   1.385       .  A
C1996      S2002   1.712       .  A
C1996      C1997   1.409       .  A
C1997      C1998   1.408       .  A
C1997      H2006   1.083       .  S
C1998      C2001   1.380       .  A
S1999      C2000   1.737       .  A
C2000      C2001   1.399       .  A
C2001      H2007   1.083       .  S
S2002      C2003   1.732       .  A
C2003      C2004   1.392       .  A
C2004      H2008   1.083       .  S
C2009      S2015   1.716       .  A
C2009      C2014   1.386       .  A
C2009      C2010   1.409       .  A
C2010      C2011   1.409       .  A
C2010      H2021   1.083       .  S
C2011      C2020   1.379       .  A
C2011      C2012   1.388       .  A
C2012      S2018   1.699       .  A
C2012      C2013   1.396       .  A
C2013      C2014   1.397       .  A
C2013      H2022   1.083       .  S
C2014      C2017   1.364       .  A
S2015      C2016   1.727       .  A
C2016      C2017   1.384       .  A
C2017      H2023   1.083       .  S
S2018      C2019   1.720       .  A
C2019      C2020   1.391       .  A
C2020      H2024   1.083       .  S
C2025      S2031   1.719       .  A
C2025      C2030   1.383       .  A
C2025      C2026   1.412       .  A
C2026      C2027   1.412       .  A
C2026      H2037   1.082       .  S
C2027      C2036   1.382       .  A
C2027      C2028   1.387       .  A
C2028      S2034   1.696       .  A
C2028      C2029   1.394       .  A
C2029      C2030   1.395       .  A
C2029      H2038   1.083       .  S
C2030      C2033   1.362       .  A
S2031      C2032   1.733       .  A
C2032      C2033   1.388       .  A
C2033      H2039   1.078       .  S
S2034      C2035   1.721       .  A
C2035      C2036   1.393       .  A
C2036      H2040   1.082       .  S
C2041      S2047   1.699       .  A
C2041      C2046   1.388       .  A
C2041      C2042   1.397       .  A
C2042      C2043   1.397       .  A
C2042      H2053   1.084       .  S
C2043      C2052   1.365       .  A
C2043      C2044   1.386       .  A
C2044      S2050   1.719       .  A
C2044      C2045   1.410       .  A
C2045      C2046   1.411       .  A
C2045      H2054   1.083       .  S
C2046      C2049   1.382       .  A
S2047      C2048   1.721       .  A
C2048      C2049   1.391       .  A
C2049      H2055   1.083       .  S
S2050      C2051   1.727       .  A
C2051      C2052   1.383       .  A
C2052      H2056   1.082       .  S
C2057      S2063   1.708       .  A
C2057      C2062   1.384       .  A
C2057      C2058   1.405       .  A
C2058      C2059   1.405       .  A
C2058      H2069   1.083       .  S
C2059      C2068   1.375       .  A
C2059      C2060   1.384       .  A
C2060      S2066   1.701       .  A
C2060      C2061   1.402       .  A
C2061      C2062   1.403       .  A
C2061      H2070   1.083       .  S
C2062      C2065   1.373       .  A
S2063      C2064   1.730       .  A
C2064      C2065   1.393       .  A
C2065      H2071   1.081       .  S
S2066      C2067   1.737       .  A
C2067      C2068   1.396       .  A
C2068      H2072   1.080       .  S
C2073      S2079   1.703       .  A
C2073      C2078   1.387       .  A
C2073      C2074   1.396       .  A
C2074      C2075   1.398       .  A
C2074      H2085   1.083       .  S
C2075      C2084   1.364       .  A
C2075      C2076   1.385       .  A
C2076      S2082   1.721       .  A
C2076      C2077   1.410       .  A
C2077      C2078   1.412       .  A
C2077      H2086   1.082       .  S
C2078      C2081   1.379       .  A
S2079      C2080   1.720       .  A
C2080      C2081   1.393       .  A
C2081      H2087   1.083       .  S
S2082      C2083   1.728       .  A
C2083      C2084   1.386       .  A
C2084      H2088   1.083       .  S
C2089      S2095   1.713       .  A
C2089      C2094   1.386       .  A
C2089      C2090   1.407       .  A
C2090      C2091   1.407       .  A
C2090      H2101   1.083       .  S
C2091      C2100   1.378       .  A
C2091      C2092   1.387       .  A
C2092      S2098   1.698       .  A
C2092      C2093   1.399       .  A
C2093      C2094   1.399       .  A
C2093      H2102   1.084       .  S
C2094      C2097   1.369       .  A
S2095      C2096   1.726       .  A
C2096      C2097   1.386       .  A
C2097      H2103   1.084       .  S
S2098      C2099   1.724       .  A
C2099      C2100   1.390       .  A
C2100      H2104   1.083       .  S
C2105      S2111   1.715       .  A
C2105      C2110   1.386       .  A
C2105      C2106   1.406       .  A
C2106      C2107   1.407       .  A
C2106      H2117   1.083       .  S
C2107      C2116   1.374       .  A
C2107      C2108   1.388       .  A
C2108      S2114   1.696       .  A
C2108      C2109   1.394       .  A
C2109      C2110   1.395       .  A
C2109      H2118   1.084       .  S
C2110      C2113   1.362       .  A
S2111      C2112   1.725       .  A
C2112      C2113   1.381       .  A
C2113      H2119   1.084       .  S
S2114      C2115   1.720       .  A
C2115      C2116   1.388       .  A
C2116      H2120   1.083       .  S
C2121      S2127   1.705       .  A
C2121      C2126   1.385       .  A
C2121      C2122   1.404       .  A
C2122      C2123   1.404       .  A
C2122      H2133   1.082       .  S
C2123      C2132   1.374       .  A
C2123      C2124   1.385       .  A
C2124      S2130   1.709       .  A
C2124      C2125   1.406       .  A
C2125      C2126   1.405       .  A
C2125      H2134   1.082       .  S
C2126      C2129   1.376       .  A
S2127      C2128   1.735       .  A
C2128      C2129   1.395       .  A
C2129      H2135   1.083       .  S
S2130      C2131   1.730       .  A
C2131      C2132   1.390       .  A
C2132      H2136   1.083       .  S
C2137      S2143   1.700       .  A
C2137      C2142   1.387       .  A
C2137      C2138   1.398       .  A
C2138      C2139   1.398       .  A
C2138      H2149   1.083       .  S
C2139      C2148   1.366       .  A
C2139      C2140   1.386       .  A
C2140      S2146   1.719       .  A
C2140      C2141   1.411       .  A
C2141      C2142   1.411       .  A
C2141      H2150   1.082       .  S
C2142      C2145   1.382       .  A
S2143      C2144   1.721       .  A
C2144      C2145   1.391       .  A
C2145      H2151   1.083       .  S
S2146      C2147   1.727       .  A
C2147      C2148   1.385       .  A
C2148      H2152   1.083       .  S
C2153      S2159   1.695       .  A
C2153      C2158   1.386       .  A
C2153      C2154   1.397       .  A
C2154      C2155   1.397       .  A
C2154      H2165   1.084       .  S
C2155      C2164   1.368       .  A
C2155      C2156   1.386       .  A
C2156      S2162   1.716       .  A
C2156      C2157   1.410       .  A
C2157      C2158   1.410       .  A
C2157      H2166   1.083       .  S
C2158      C2161   1.382       .  A
S2159      C2160   1.725       .  A
C2160      C2161   1.393       .  A
C2161      H2167   1.083       .  S
S2162      C2163   1.728       .  A
C2163      C2164   1.385       .  A
C2164      H2168   1.084       .  S
C2169      S2175   1.694       .  A
C2169      C2174   1.387       .  A
C2169      C2170   1.396       .  A
C2170      C2171   1.396       .  A
C2170      H2181   1.084       .  S
C2171      C2180   1.368       .  A
C2171      C2172   1.386       .  A
C2172      S2178   1.714       .  A
C2172      C2173   1.410       .  A
C2173      C2174   1.409       .  A
C2173      H2182   1.083       .  S
C2174      C2177   1.382       .  A
S2175      C2176   1.722       .  A
C2176      C2177   1.392       .  A
C2177      H2183   1.083       .  S
S2178      C2179   1.728       .  A
C2179      C2180   1.383       .  A
C2180      H2184   1.084       .  S
C2185      S2191   1.705       .  A
C2185      C2190   1.383       .  A
C2185      C2186   1.406       .  A
C2186      C2187   1.406       .  A
C2186      H2197   1.083       .  S
C2187      C2196   1.379       .  A
C2187      C2188   1.385       .  A
C2188      S2194   1.711       .  A
C2188      C2189   1.409       .  A
C2189      C2190   1.408       .  A
C2189      H2198   1.083       .  S
C2190      C2193   1.381       .  A
S2191      C2192   1.738       .  A
C2192      C2193   1.398       .  A
C2193      H2199   1.083       .  S
S2194      C2195   1.732       .  A
C2195      C2196   1.393       .  A
C2196      H2200   1.083       .  S
C2201      S2207   1.723       .  A
C2201      C2206   1.383       .  A
C2201      C2202   1.414       .  A
C2202      C2203   1.415       .  A
C2202      H2213   1.083       .  S
C2203      C2212   1.385       .  A
C2203      C2204   1.387       .  A
C2204      S2210   1.699       .  A
C2204      C2205   1.396       .  A
C2205      C2206   1.397       .  A
C2205      H2214   1.084       .  S
C2206      C2209   1.366       .  A
S2207      C2208   1.734       .  A
C2208      C2209   1.389       .  A
C2209      H2215   1.081       .  S
S2210      C2211   1.721       .  A
C2211      C2212   1.396       .  A
C2212      H2216   1.083       .  S
C2217      S2223   1.719       .  A
C2217      C2222   1.385       .  A
C2217      C2218   1.412       .  A
C2218      C2219   1.412       .  A
C2218      H2229   1.083       .  S
C2219      C2228   1.384       .  A
C2219      C2220   1.387       .  A
C2220      S2226   1.698       .  A
C2220      C2221   1.396       .  A
C2221      C2222   1.397       .  A
C2221      H2230   1.084       .  S
C2222      C2225   1.366       .  A
S2223      C2224   1.729       .  A
C2224      C2225   1.384       .  A
C2225      H2231   1.083       .  S
S2226      C2227   1.721       .  A
C2227      C2228   1.394       .  A
C2228      H2232   1.083       .  S
C2233      S2239   1.714       .  A
C2233      C2238   1.385       .  A
C2233      C2234   1.409       .  A
C2234      C2235   1.409       .  A
C2234      H2245   1.083       .  S
C2235      C2244   1.381       .  A
C2235      C2236   1.387       .  A
C2236      S2242   1.698       .  A
C2236      C2237   1.397       .  A
C2237      C2238   1.398       .  A
C2237      H2246   1.083       .  S
C2238      C2241   1.368       .  A
S2239      C2240   1.730       .  A
C2240      C2241   1.386       .  A
C2241      H2247   1.082       .  S
S2242      C2243   1.721       .  A
C2243      C2244   1.391       .  A
C2244      H2248   1.083       .  S
C2249      S2255   1.707       .  A
C2249      C2254   1.385       .  A
C2249      C2250   1.406       .  A
C2250      C2251   1.405       .  A
C2250      H2261   1.083       .  S
C2251      C2260   1.378       .  A
C2251      C2252   1.384       .  A
C2252      S2258   1.709       .  A
C2252      C2253   1.408       .  A
C2253      C2254   1.407       .  A
C2253      H2262   1.083       .  S
C2254      C2257   1.380       .  A
S2255      C2256   1.732       .  A
C2256      C2257   1.393       .  A
C2257      H2263   1.083       .  S
S2258      C2259   1.738       .  A
C2259      C2260   1.396       .  A
C2260      H2264   1.083       .  S
C2265      S2271   1.698       .  A
C2265      C2270   1.387       .  A
C2265      C2266   1.396       .  A
C2266      C2267   1.397       .  A
C2266      H2277   1.084       .  S
C2267      C2276   1.365       .  A
C2267      C2268   1.385       .  A
C2268      S2274   1.716       .  A
C2268      C2269   1.409       .  A
C2269      C2270   1.410       .  A
C2269      H2278   1.083       .  S
C2270      C2273   1.380       .  A
S2271      C2272   1.721       .  A
C2272      C2273   1.391       .  A
C2273      H2279   1.083       .  S
S2274      C2275   1.728       .  A
C2275      C2276   1.385       .  A
C2276      H2280   1.083       .  S
C2281      S2287   1.700       .  A
C2281      C2286   1.388       .  A
C2281      C2282   1.398       .  A
C2282      C2283   1.399       .  A
C2282      H2293   1.084       .  S
C2283      C2292   1.368       .  A
C2283      C2284   1.387       .  A
C2284      S2290   1.712       .  A
C2284      C2285   1.406       .  A
C2285      C2286   1.406       .  A
C2285      H2294   1.083       .  S
C2286      C2289   1.377       .  A
S2287      C2288   1.722       .  A
C2288      C2289   1.387       .  A
C2289      H2295   1.083       .  S
S2290      C2291   1.724       .  A
C2291      C2292   1.384       .  A
C2292      H2296   1.084       .  S
C2297      S2303   1.700       .  A
C2297      C2302   1.387       .  A
C2297      C2298   1.398       .  A
C2298      C2299   1.399       .  A
C2298      H2309   1.083       .  S
C2299      C2308   1.368       .  A
C2299      C2300   1.387       .  A
C2300      S2306   1.713       .  A
C2300      C2301   1.407       .  A
C2301      C2302   1.407       .  A
C2301      H2310   1.083       .  S
C2302      C2305   1.377       .  A
S2303      C2304   1.722       .  A
C2304      C2305   1.389       .  A
C2305      H2311   1.083       .  S
S2306      C2307   1.725       .  A
C2307      C2308   1.384       .  A
C2308      H2312   1.084       .  S
C2313      S2319   1.709       .  A
C2313      C2318   1.384       .  A
C2313      C2314   1.405       .  A
C2314      C2315   1.406       .  A
C2314      H2325   1.083       .  S
C2315      C2324   1.375       .  A
C2315      C2316   1.383       .  A
C2316      S2322   1.711       .  A
C2316      C2317   1.407       .  A
C2317      C2318   1.407       .  A
C2317      H2326   1.083       .  S
C2318      C2321   1.377       .  A
S2319      C2320   1.729       .  A
C2320      C2321   1.396       .  A
C2321      H2327   1.080       .  S
S2322      C2323   1.735       .  A
C2323      C2324   1.398       .  A
C2324      H2328   1.081       .  S
C2329      S2335   1.694       .  A
C2329      C2334   1.385       .  A
C2329      C2330   1.394       .  A
C2330      C2331   1.395       .  A
C2330      H2341   1.084       .  S
C2331      C2340   1.364       .  A
C2331      C2332   1.384       .  A
C2332      S2338   1.727       .  A
C2332      C2333   1.417       .  A
C2333      C2334   1.417       .  A
C2333      H2342   1.083       .  S
C2334      C2337   1.387       .  A
S2335      C2336   1.723       .  A
C2336      C2337   1.400       .  A
C2337      H2343   1.082       .  S
S2338      C2339   1.733       .  A
C2339      C2340   1.386       .  A
C2340      H2344   1.084       .  S
C2345      S2351   1.717       .  A
C2345      C2350   1.386       .  A
C2345      C2346   1.409       .  A
C2346      C2347   1.409       .  A
C2346      H2357   1.083       .  S
C2347      C2356   1.378       .  A
C2347      C2348   1.388       .  A
C2348      S2354   1.698       .  A
C2348      C2349   1.395       .  A
C2349      C2350   1.396       .  A
C2349      H2358   1.083       .  S
C2350      C2353   1.364       .  A
S2351      C2352   1.726       .  A
C2352      C2353   1.383       .  A
C2353      H2359   1.083       .  S
S2354      C2355   1.719       .  A
C2355      C2356   1.390       .  A
C2356      H2360   1.083       .  S
C2361      S2367   1.701       .  A
C2361      C2366   1.387       .  A
C2361      C2362   1.397       .  A
C2362      C2363   1.398       .  A
C2362      H2373   1.084       .  S
C2363      C2372   1.365       .  A
C2363      C2364   1.385       .  A
C2364      S2370   1.716       .  A
C2364      C2365   1.408       .  A
C2365      C2366   1.408       .  A
C2365      H2374   1.083       .  S
C2366      C2369   1.377       .  A
S2367      C2368   1.721       .  A
C2368      C2369   1.390       .  A
C2369      H2375   1.083       .  S
S2370      C2371   1.728       .  A
C2371      C2372   1.387       .  A
C2372      H2376   1.082       .  S
C2377      S2383   1.708       .  A
C2377      C2382   1.385       .  A
C2377      C2378   1.404       .  A
C2378      C2379   1.404       .  A
C2378      H2389   1.083       .  S
C2379      C2388   1.376       .  A
C2379      C2380   1.383       .  A
C2380      S2386   1.708       .  A
C2380      C2381   1.408       .  A
C2381      C2382   1.408       .  A
C2381      H2390   1.083       .  S
C2382      C2385   1.378       .  A
S2383      C2384   1.728       .  A
C2384      C2385   1.394       .  A
C2385      H2391   1.083       .  S
S2386      C2387   1.739       .  A
C2387      C2388   1.395       .  A
C2388      H2392   1.083       .  S
C2393      S2399   1.719       .  A
C2393      C2398   1.386       .  A
C2393      C2394   1.412       .  A
C2394      C2395   1.412       .  A
C2394      H2405   1.083       .  S
C2395      C2404   1.384       .  A
C2395      C2396   1.387       .  A
C2396      S2402   1.698       .  A
C2396      C2397   1.398       .  A
C2397      C2398   1.398       .  A
C2397      H2406   1.084       .  S
C2398      C2401   1.370       .  A
S2399      C2400   1.729       .  A
C2400      C2401   1.385       .  A
C2401      H2407   1.084       .  S
S2402      C2403   1.724       .  A
C2403      C2404   1.393       .  A
C2404      H2408   1.083       .  S
C2409      S2415   1.718       .  A
C2409      C2414   1.384       .  A
C2409      C2410   1.409       .  A
C2410      C2411   1.410       .  A
C2410      H2421   1.083       .  S
C2411      C2420   1.378       .  A
C2411      C2412   1.387       .  A
C2412      S2418   1.703       .  A
C2412      C2413   1.397       .  A
C2413      C2414   1.399       .  A
C2413      H2422   1.084       .  S
C2414      C2417   1.364       .  A
S2415      C2416   1.729       .  A
C2416      C2417   1.389       .  A
C2417      H2423   1.081       .  S
S2418      C2419   1.721       .  A
C2419      C2420   1.391       .  A
C2420      H2424   1.083       .  S
C2425      S2431   1.715       .  A
C2425      C2430   1.386       .  A
C2425      C2426   1.408       .  A
C2426      C2427   1.408       .  A
C2426      H2437   1.083       .  S
C2427      C2436   1.378       .  A
C2427      C2428   1.387       .  A
C2428      S2434   1.698       .  A
C2428      C2429   1.396       .  A
C2429      C2430   1.397       .  A
C2429      H2438   1.084       .  S
C2430      C2433   1.366       .  A
S2431      C2432   1.726       .  A
C2432      C2433   1.383       .  A
C2433      H2439   1.084       .  S
S2434      C2435   1.721       .  A
C2435      C2436   1.390       .  A
C2436      H2440   1.083       .  S
C2441      S2447   1.707       .  A
C2441      C2446   1.383       .  A
C2441      C2442   1.408       .  A
C2442      C2443   1.407       .  A
C2442      H2453   1.083       .  S
C2443      C2452   1.381       .  A
C2443      C2444   1.385       .  A
C2444      S2450   1.705       .  A
C2444      C2445   1.406       .  A
C2445      C2446   1.405       .  A
C2445      H2454   1.083       .  S
C2446      C2449   1.378       .  A
S2447      C2448   1.737       .  A
C2448      C2449   1.397       .  A
C2449      H2455   1.083       .  S
S2450      C2451   1.733       .  A
C2451      C2452   1.393       .  A
C2452      H2456   1.083       .  S
C2457      S2463   1.717       .  A
C2457      C2462   1.385       .  A
C2457      C2458   1.410       .  A
C2458      C2459   1.410       .  A
C2458      H2469   1.083       .  S
C2459      C2468   1.380       .  A
C2459      C2460   1.388       .  A
C2460      S2466   1.696       .  A
C2460      C2461   1.393       .  A
C2461      C2462   1.394       .  A
C2461      H2470   1.084       .  S
C2462      C2465   1.362       .  A
S2463      C2464   1.729       .  A
C2464      C2465   1.383       .  A
C2465      H2471   1.083       .  S
S2466      C2467   1.718       .  A
C2467      C2468   1.391       .  A
C2468      H2472   1.083       .  S
C2473      S2479   1.719       .  A
C2473      C2478   1.386       .  A
C2473      C2474   1.411       .  A
C2474      C2475   1.411       .  A
C2474      H2485   1.083       .  S
C2475      C2484   1.382       .  A
C2475      C2476   1.386       .  A
C2476      S2482   1.696       .  A
C2476      C2477   1.396       .  A
C2477      C2478   1.397       .  A
C2477      H2486   1.084       .  S
C2478      C2481   1.366       .  A
S2479      C2480   1.729       .  A
C2480      C2481   1.385       .  A
C2481      H2487   1.084       .  S
S2482      C2483   1.724       .  A
C2483      C2484   1.394       .  A
C2484      H2488   1.082       .  S
C2489      S2495   1.719       .  A
C2489      C2494   1.386       .  A
C2489      C2490   1.409       .  A
C2490      C2491   1.410       .  A
C2490      H2501   1.083       .  S
C2491      C2500   1.379       .  A
C2491      C2492   1.387       .  A
C2492      S2498   1.701       .  A
C2492      C2493   1.397       .  A
C2493      C2494   1.398       .  A
C2493      H2502   1.083       .  S
C2494      C2497   1.365       .  A
S2495      C2496   1.727       .  A
C2496      C2497   1.385       .  A
C2497      H2503   1.083       .  S
S2498      C2499   1.721       .  A
C2499      C2500   1.391       .  A
C2500      H2504   1.083       .  S
C2505      S2511   1.706       .  A
C2505      C2510   1.385       .  A
C2505      C2506   1.401       .  A
C2506      C2507   1.402       .  A
C2506      H2517   1.083       .  S
C2507      C2516   1.370       .  A
C2507      C2508   1.383       .  A
C2508      S2514   1.710       .  A
C2508      C2509   1.407       .  A
C2509      C2510   1.408       .  A
C2509      H2518   1.083       .  S
C2510      C2513   1.377       .  A
S2511      C2512   1.727       .  A
C2512      C2513   1.393       .  A
C2513      H2519   1.083       .  S
S2514      C2515   1.738       .  A
C2515      C2516   1.396       .  A
C2516      H2520   1.083       .  S
C2521      S2527   1.699       .  A
C2521      C2526   1.387       .  A
C2521      C2522   1.396       .  A
C2522      C2523   1.397       .  A
C2522      H2533   1.083       .  S
C2523      C2532   1.365       .  A
C2523      C2524   1.385       .  A
C2524      S2530   1.719       .  A
C2524      C2525   1.410       .  A
C2525      C2526   1.411       .  A
C2525      H2534   1.083       .  S
C2526      C2529   1.381       .  A
S2527      C2528   1.721       .  A
C2528      C2529   1.392       .  A
C2529      H2535   1.083       .  S
S2530      C2531   1.728       .  A
C2531      C2532   1.386       .  A
C2532      H2536   1.083       .  S
C2537      S2543   1.716       .  A
C2537      C2542   1.386       .  A
C2537      C2538   1.409       .  A
C2538      C2539   1.409       .  A
C2538      H2549   1.083       .  S
C2539      C2548   1.378       .  A
C2539      C2540   1.387       .  A
C2540      S2546   1.697       .  A
C2540      C2541   1.395       .  A
C2541      C2542   1.396       .  A
C2541      H2550   1.084       .  S
C2542      C2545   1.365       .  A
S2543      C2544   1.727       .  A
C2544      C2545   1.383       .  A
C2545      H2551   1.084       .  S
S2546      C2547   1.721       .  A
C2547      C2548   1.391       .  A
C2548      H2552   1.083       .  S
C2553      S2559   1.694       .  A
C2553      C2558   1.387       .  A
C2553      C2554   1.393       .  A
C2554      C2555   1.394       .  A
C2554      H2565   1.084       .  S
C2555      C2564   1.362       .  A
C2555      C2556   1.386       .  A
C2556      S2562   1.717       .  A
C2556      C2557   1.409       .  A
C2557      C2558   1.410       .  A
C2557      H2566   1.083       .  S
C2558      C2561   1.379       .  A
S2559      C2560   1.720       .  A
C2560      C2561   1.392       .  A
C2561      H2567   1.083       .  S
S2562      C2563   1.728       .  A
C2563      C2564   1.381       .  A
C2564      H2568   1.084       .  S
C2569      S2575   1.710       .  A
C2569      C2574   1.385       .  A
C2569      C2570   1.408       .  A
C2570      C2571   1.408       .  A
C2570      H2581   1.083       .  S
C2571      C2580   1.379       .  A
C2571      C2572   1.384       .  A
C2572      S2578   1.698       .  A
C2572      C2573   1.400       .  A
C2573      C2574   1.400       .  A
C2573      H2582   1.083       .  S
C2574      C2577   1.370       .  A
S2575      C2576   1.731       .  A
C2576      C2577   1.389       .  A
C2577      H2583   1.081       .  S
S2578      C2579   1.735       .  A
C2579      C2580   1.398       .  A
C2580      H2584   1.080       .  S
C2585      S2591   1.701       .  A
C2585      C2590   1.387       .  A
C2585      C2586   1.397       .  A
C2586      C2587   1.399       .  A
C2586      H2597   1.084       .  S
C2587      C2596   1.366       .  A
C2587      C2588   1.386       .  A
C2588      S2594   1.718       .  A
C2588      C2589   1.409       .  A
C2589      C2590   1.410       .  A
C2589      H2598   1.083       .  S
C2590      C2593   1.378       .  A
S2591      C2592   1.721       .  A
C2592      C2593   1.392       .  A
C2593      H2599   1.083       .  S
S2594      C2595   1.727       .  A
C2595      C2596   1.386       .  A
C2596      H2600   1.084       .  S
C2601      S2607   1.720       .  A
C2601      C2606   1.386       .  A
C2601      C2602   1.412       .  A
C2602      C2603   1.412       .  A
C2602      H2613   1.083       .  S
C2603      C2612   1.384       .  A
C2603      C2604   1.387       .  A
C2604      S2610   1.700       .  A
C2604      C2605   1.398       .  A
C2605      C2606   1.399       .  A
C2605      H2614   1.084       .  S
C2606      C2609   1.369       .  A
S2607      C2608   1.729       .  A
C2608      C2609   1.386       .  A
C2609      H2615   1.084       .  S
S2610      C2611   1.723       .  A
C2611      C2612   1.393       .  A
C2612      H2616   1.083       .  S
C2617      S2623   1.716       .  A
C2617      C2622   1.386       .  A
C2617      C2618   1.408       .  A
C2618      C2619   1.409       .  A
C2618      H2629   1.083       .  S
C2619      C2628   1.378       .  A
C2619      C2620   1.387       .  A
C2620      S2626   1.701       .  A
C2620      C2621   1.398       .  A
C2621      C2622   1.399       .  A
C2621      H2630   1.083       .  S
C2622      C2625   1.367       .  A
S2623      C2624   1.725       .  A
C2624      C2625   1.385       .  A
C2625      H2631   1.084       .  S
S2626      C2627   1.721       .  A
C2627      C2628   1.390       .  A
C2628      H2632   1.083       .  S
C2633      S2639   1.707       .  A
C2633      C2638   1.385       .  A
C2633      C2634   1.405       .  A
C2634      C2635   1.405       .  A
C2634      H2645   1.082       .  S
C2635      C2644   1.376       .  A
C2635      C2636   1.383       .  A
C2636      S2642   1.710       .  A
C2636      C2637   1.408       .  A
C2637      C2638   1.407       .  A
C2637      H2646   1.082       .  S
C2638      C2641   1.380       .  A
S2639      C2640   1.731       .  A
C2640      C2641   1.393       .  A
C2641      H2647   1.083       .  S
S2642      C2643   1.736       .  A
C2643      C2644   1.397       .  A
C2644      H2648   1.083       .  S
C2649      S2655   1.725       .  A
C2649      C2654   1.385       .  A
C2649      C2650   1.416       .  A
C2650      C2651   1.416       .  A
C2650      H2661   1.082       .  S
C2651      C2660   1.389       .  A
C2651      C2652   1.387       .  A
C2652      S2658   1.697       .  A
C2652      C2653   1.396       .  A
C2653      C2654   1.397       .  A
C2653      H2662   1.083       .  S
C2654      C2657   1.367       .  A
S2655      C2656   1.732       .  A
C2656      C2657   1.385       .  A
C2657      H2663   1.083       .  S
S2658      C2659   1.721       .  A
C2659      C2660   1.397       .  A
C2660      H2664   1.082       .  S
C2665      S2671   1.714       .  A
C2665      C2670   1.386       .  A
C2665      C2666   1.409       .  A
C2666      C2667   1.409       .  A
C2666      H2677   1.083       .  S
C2667      C2676   1.380       .  A
C2667      C2668   1.386       .  A
C2668      S2674   1.697       .  A
C2668      C2669   1.397       .  A
C2669      C2670   1.397       .  A
C2669      H2678   1.084       .  S
C2670      C2673   1.368       .  A
S2671      C2672   1.727       .  A
C2672      C2673   1.384       .  A
C2673      H2679   1.084       .  S
S2674      C2675   1.725       .  A
C2675      C2676   1.393       .  A
C2676      H2680   1.082       .  S
C2681      S2687   1.719       .  A
C2681      C2686   1.386       .  A
C2681      C2682   1.411       .  A
C2682      C2683   1.411       .  A
C2682      H2693   1.083       .  S
C2683      C2692   1.381       .  A
C2683      C2684   1.387       .  A
C2684      S2690   1.696       .  A
C2684      C2685   1.395       .  A
C2685      C2686   1.396       .  A
C2685      H2694   1.084       .  S
C2686      C2689   1.364       .  A
S2687      C2688   1.728       .  A
C2688      C2689   1.383       .  A
C2689      H2695   1.084       .  S
S2690      C2691   1.722       .  A
C2691      C2692   1.393       .  A
C2692      H2696   1.083       .  S
C2697      S2703   1.714       .  A
C2697      C2702   1.385       .  A
C2697      C2698   1.412       .  A
C2698      C2699   1.411       .  A
C2698      H2709   1.083       .  S
C2699      C2708   1.386       .  A
C2699      C2700   1.383       .  A
C2700      S2706   1.701       .  A
C2700      C2701   1.404       .  A
C2701      C2702   1.403       .  A
C2701      H2710   1.083       .  S
C2702      C2705   1.377       .  A
S2703      C2704   1.734       .  A
C2704      C2705   1.391       .  A
C2705      H2711   1.083       .  S
S2706      C2707   1.738       .  A
C2707      C2708   1.400       .  A
C2708      H2712   1.083       .  S
C2713      S2719   1.696       .  A
C2713      C2718   1.387       .  A
C2713      C2714   1.393       .  A
C2714      C2715   1.395       .  A
C2714      H2725   1.084       .  S
C2715      C2724   1.361       .  A
C2715      C2716   1.386       .  A
C2716      S2722   1.716       .  A
C2716      C2717   1.407       .  A
C2717      C2718   1.408       .  A
C2717      H2726   1.083       .  S
C2718      C2721   1.375       .  A
S2719      C2720   1.720       .  A
C2720      C2721   1.389       .  A
C2721      H2727   1.083       .  S
S2722      C2723   1.726       .  A
C2723      C2724   1.383       .  A
C2724      H2728   1.084       .  S
C2729      S2735   1.699       .  A
C2729      C2734   1.388       .  A
C2729      C2730   1.398       .  A
C2730      C2731   1.398       .  A
C2730      H2741   1.084       .  S
C2731      C2740   1.368       .  A
C2731      C2732   1.387       .  A
C2732      S2738   1.713       .  A
C2732      C2733   1.407       .  A
C2733      C2734   1.407       .  A
C2733      H2742   1.083       .  S
C2734      C2737   1.379       .  A
S2735      C2736   1.721       .  A
C2736      C2737   1.388       .  A
C2737      H2743   1.083       .  S
S2738      C2739   1.725       .  A
C2739      C2740   1.383       .  A
C2740      H2744   1.084       .  S
C2745      S2751   1.720       .  A
C2745      C2750   1.385       .  A
C2745      C2746   1.412       .  A
C2746      C2747   1.412       .  A
C2746      H2757   1.083       .  S
C2747      C2756   1.383       .  A
C2747      C2748   1.386       .  A
C2748      S2754   1.696       .  A
C2748      C2749   1.397       .  A
C2749      C2750   1.397       .  A
C2749      H2758   1.084       .  S
C2750      C2753   1.366       .  A
S2751      C2752   1.729       .  A
C2752      C2753   1.386       .  A
C2753      H2759   1.084       .  S
S2754      C2755   1.725       .  A
C2755      C2756   1.395       .  A
C2756      H2760   1.082       .  S
C2761      S2767   1.705       .  A
C2761      C2766   1.385       .  A
C2761      C2762   1.406       .  A
C2762      C2763   1.405       .  A
C2762      H2773   1.083       .  S
C2763      C2772   1.376       .  A
C2763      C2764   1.384       .  A
C2764      S2770   1.701       .  A
C2764      C2765   1.403       .  A
C2765      C2766   1.402       .  A
C2765      H2774   1.083       .  S
C2766      C2769   1.375       .  A
S2767      C2768   1.733       .  A
C2768      C2769   1.389       .  A
C2769      H2775   1.083       .  S
S2770      C2771   1.735       .  A
C2771      C2772   1.397       .  A
C2772      H2776   1.083       .  S
