geometry optimzed in LAMMPS
_audit_creation_date              2020-11-30 
_audit_creation_method            'lammps2cif' 
_symmetry_space_group_name_H-M    'P1' 
_symmetry_Int_Tables_number       1 
_symmetry_cell_setting            triclinic 
loop_ 
_symmetry_equiv_pos_as_xyz 
  x,y,z 
_cell_length_a                    30.8592570716056 
_cell_length_b                    31.264604344353756 
_cell_length_c                    31.573324613619622 
_cell_angle_alpha                 89.16052866006872 
_cell_angle_beta                  90.22129138949111 
_cell_angle_gamma                 89.94198027840893 
loop_ 
_atom_site_label 
_atom_site_type_symbol 
_atom_site_fract_x 
_atom_site_fract_y 
_atom_site_fract_z 
_atom_site_charge 
O1          O  0.31574566  0.67775197  0.75195587    -0.80440
O2          O  0.31711855  0.80678303  0.74823427    -0.80460
O3          O  0.26350310  0.70733731  0.65923355    -0.80470
O4          O  0.26330025  0.77773692  0.84079601    -0.80410
O5          O  0.31757616  0.74251744  0.68750579    -0.80540
O6          O  0.31701458  0.74226109  0.81292263    -0.80450
O7          O  0.26273542  0.83575552  0.78159469    -0.80440
O8          O  0.26096657  0.64882174  0.71918855    -0.80480
C9          C  0.30143860  0.65046127  0.72630898     1.09250
C10         C  0.30281776  0.83565439  0.77211979     1.09140
C11         C  0.30351758  0.71777098  0.65943663     1.09270
C12         C  0.30367279  0.76954759  0.83913805     1.09150
O13         O  0.23307410  0.70952881  0.84279885    -0.80440
O14         O  0.23329026  0.77675605  0.65593383    -0.80520
O15         O  0.17894295  0.68076383  0.75064154    -0.80450
O16         O  0.17990864  0.80493943  0.74837965    -0.80430
O17         O  0.23323317  0.83469810  0.71329748    -0.80480
O18         O  0.23108540  0.64985323  0.78722208    -0.80450
O19         O  0.17984603  0.74363445  0.81137053    -0.80410
O20         O  0.18015517  0.74253670  0.68696209    -0.80480
Co21       Co  0.27420806  0.69866660  0.79463336     1.51530
Co22       Co  0.27505459  0.78593240  0.70543512     1.51690
Co23       Co  0.22139012  0.69882114  0.70765141     1.51570
Co24       Co  0.22184680  0.78644825  0.79173145     1.51470
O25         O  0.24849407  0.74243504  0.74985607    -1.42370
C26         C  0.19298916  0.71923344  0.84072199     1.09180
C27         C  0.19296222  0.76792458  0.65823545     1.09270
C28         C  0.19098642  0.65252018  0.77718717     1.09200
C29         C  0.19331218  0.83372501  0.72343629     1.09180
O30         O  0.75432632  0.30780164  0.68825092    -0.80440
O31         O  0.74414838  0.30695588  0.81240997    -0.80460
O32         O  0.65500099  0.24932816  0.71194901    -0.80470
O33         O  0.84307016  0.25101996  0.78815121    -0.80410
O34         O  0.68353117  0.30301745  0.74488222    -0.80540
O35         O  0.81326915  0.30419361  0.75406667    -0.80450
O36         O  0.77924814  0.25371326  0.84252673    -0.80440
O37         O  0.71787769  0.25536695  0.65921344    -0.80480
C38         C  0.72895560  0.29453468  0.65961030     1.09250
C39         C  0.77159018  0.29336667  0.83991552     1.09140
C40         C  0.65597822  0.28938946  0.71884703     1.09270
C41         C  0.84212648  0.29089524  0.77891713     1.09150
O42         O  0.84442892  0.21799531  0.72190020    -0.80440
O43         O  0.65446675  0.21624411  0.77903929    -0.80520
O44         O  0.75556231  0.17299780  0.68472125    -0.80450
O45         O  0.74409118  0.17305381  0.81747792    -0.80430
O46         O  0.70906843  0.22785160  0.84214920    -0.80480
O47         O  0.78848966  0.22895032  0.65903628    -0.80450
O48         O  0.80967648  0.16756453  0.75669800    -0.80410
O49         O  0.69023661  0.16642850  0.74550067    -0.80480
Co50       Co  0.79629789  0.26418497  0.71004245     1.51530
Co51       Co  0.70155995  0.26333261  0.79052821     1.51690
Co52       Co  0.70841749  0.21125402  0.70470560     1.51570
Co53       Co  0.79054020  0.21164681  0.79691074     1.51470
O54         O  0.74915099  0.23779719  0.75061731    -1.42370
C55         C  0.84041740  0.17825552  0.73259791     1.09180
C56         C  0.65905001  0.17658602  0.76897603     1.09270
C57         C  0.78227949  0.18935354  0.65877578     1.09200
C58         C  0.71653639  0.18845914  0.84283372     1.09180
O59         O  0.69145600  0.75586237  0.18375320    -0.80440
O60         O  0.82412408  0.74259267  0.18312599    -0.80460
O61         O  0.72995288  0.84234280  0.23264985    -0.80470
O62         O  0.78412338  0.65255819  0.22858450    -0.80410
O63         O  0.76338109  0.81056901  0.18067890    -0.80540
O64         O  0.75072114  0.68851055  0.17812879    -0.80450
O65         O  0.84957590  0.70594630  0.23699226    -0.80440
O66         O  0.66560974  0.78900530  0.23854277    -0.80480
C67         C  0.66535767  0.78274487  0.19924033     1.09250
C68         C  0.84907929  0.71353257  0.19780746     1.09140
C69         C  0.73931471  0.84059520  0.19313935     1.09270
C70         C  0.77373319  0.65697134  0.18931650     1.09150
O71         O  0.71556897  0.65493063  0.26034315    -0.80440
O72         O  0.79890869  0.83816527  0.26410177    -0.80520
O73         O  0.69542172  0.75057868  0.31763969    -0.80450
O74         O  0.82092578  0.73902225  0.31631920    -0.80430
O75         O  0.85315080  0.77381733  0.26445582    -0.80480
O76         O  0.66364852  0.71967039  0.26418689    -0.80450
O77         O  0.75218177  0.68107884  0.31301395    -0.80410
O78         O  0.76326496  0.80775604  0.31584958    -0.80480
Co79       Co  0.70989554  0.70823035  0.22187007     1.51530
Co80       Co  0.80556051  0.78785891  0.22319969     1.51690
Co81       Co  0.71759274  0.79328684  0.27566259     1.51570
Co82       Co  0.79791733  0.69851726  0.27345435     1.51470
O83         O  0.75787106  0.74697267  0.24845564    -1.42370
C84         C  0.72525034  0.65419853  0.29977601     1.09180
C85         C  0.78784675  0.83706236  0.30320481     1.09270
C86         C  0.66605576  0.72625046  0.30378593     1.09200
C87         C  0.84946294  0.76557630  0.30377363     1.09180
C88         C  0.52958619  0.99411592  0.03307292     0.01980
C89         C  0.49587347  0.96235547  0.03312301     0.01980
C90         C  0.46492966  0.96072076  0.99882672     0.01980
C91         C  0.46718242  0.99169023  0.96440073     0.01980
C92         C  0.49909826  0.02559767  0.96489061     0.01980
C93         C  0.52951364  0.02637973  0.99995243     0.01980
C94         C  0.58767106  0.01946352  0.13881858     0.02830
C95         C  0.61005647  0.98120846  0.14407127    -0.13320
C96         C  0.62544470  0.95939070  0.10842206     0.00330
C97         C  0.60142795  0.96645133  0.06978972    -0.11850
C98         C  0.56386381  0.99413027  0.06908133     0.02820
C99         C  0.55907424  0.02206110  0.10402015    -0.11270
H100        H  0.62434141  0.97541425  0.17501938     0.08410
H101        H  0.61038241  0.95018924  0.04121682     0.05940
H102        H  0.53285401  0.04476666  0.10502274     0.05790
C103        C  0.60124360  0.11938983  0.03309008     0.02830
C104        C  0.62425673  0.12532778  0.99596480    -0.13320
C105        C  0.62118334  0.09597992  0.96363907     0.00330
C106        C  0.59339571  0.06133934  0.96725741    -0.11850
C107        C  0.56343218  0.05990655  0.00042827     0.02820
C108        C  0.56679731  0.09024241  0.03325035    -0.11270
H109        H  0.64757804  0.15124992  0.99345909     0.08410
H110        H  0.59362052  0.03710977  0.94331195     0.05940
H111        H  0.54358724  0.09142223  0.05840207     0.05790
C112        C  0.38045955  0.03698180  0.89271722     0.02830
C113        C  0.37864351  0.00687656  0.86092662    -0.13320
C114        C  0.39432422  0.96621093  0.86727583     0.00330
C115        C  0.42686747  0.96101731  0.89866153    -0.11850
C116        C  0.43248909  0.99286885  0.93052391     0.02820
C117        C  0.40502862  0.02883443  0.92903259    -0.11270
H118        H  0.36087092  0.01410485  0.83197900     0.08410
H119        H  0.44792246  0.93391349  0.89654455     0.05940
H120        H  0.40566462  0.05201904  0.95408803     0.05790
C121        C  0.47049167  0.12662869  0.89385963     0.02830
C122        C  0.49370115  0.11556869  0.85802864    -0.13320
C123        C  0.52644598  0.08519453  0.85714413     0.00330
C124        C  0.52764900  0.05525143  0.89181585    -0.11850
C125        C  0.50037999  0.06024672  0.92853509     0.02820
C126        C  0.47413953  0.09854700  0.92990844    -0.11270
H127        H  0.48731269  0.13377639  0.83008189     0.08410
H128        H  0.54910203  0.02803589  0.88990890     0.05940
H129        H  0.45575706  0.10548766  0.95808311     0.05790
C130        C  0.53666412  0.87534966  0.10796611     0.02830
C131        C  0.53105936  0.90020854  0.07111601    -0.13320
C132        C  0.49567648  0.92864266  0.06793112     0.00330
C133        C  0.46244606  0.92520019  0.09916333    -0.11850
C134        C  0.46442416  0.89230173  0.13009985     0.02820
C135        C  0.50393347  0.87321857  0.13767698    -0.11270
H136        H  0.55535360  0.90004350  0.04667928     0.08410
H137        H  0.43614015  0.94761274  0.10038015     0.05940
H138        H  0.50786367  0.85252039  0.16541285     0.05790
C139        C  0.37182808  0.88580054  0.03373029     0.02830
C140        C  0.39749439  0.92312263  0.02974195    -0.13320
C141        C  0.43082930  0.92552546  0.99859360     0.00330
C142        C  0.43195099  0.89306634  0.96765585    -0.11850
C143        C  0.39798729  0.86331526  0.96518172     0.02820
C144        C  0.37158198  0.85771041  0.99989122    -0.11270
H145        H  0.39258989  0.94924382  0.05088152     0.08410
H146        H  0.45837615  0.89117013  0.94559624     0.05940
H147        H  0.34787941  0.83202928  0.99924175     0.05790
C148        C  0.96376526  0.46275100  0.99682155     0.01980
C149        C  0.99683505  0.46262168  0.96398875     0.01980
C150        C  0.03183452  0.49329910  0.96478663     0.01980
C151        C  0.03294078  0.52477187  0.99786896     0.01980
C152        C  0.00130455  0.52320951  0.03171164     0.01980
C153        C  0.96552800  0.49360279  0.03045565     0.01980
C154        C  0.09023644  0.62968041  0.96646851     0.02830
C155        C  0.06432006  0.59318124  0.96319691    -0.13320
C156        C  0.06481596  0.56185290  0.99632290     0.00330
C157        C  0.09396748  0.56889291  0.03041407    -0.11850
C158        C  0.10988877  0.61063536  0.03813121     0.02820
C159        C  0.10265512  0.64143557  0.00609047    -0.11270
H160        H  0.04325710  0.59130812  0.93628761     0.08410
H161        H  0.10166425  0.54245546  0.05087094     0.05940
H162        H  0.11719014  0.67281083  0.00691940     0.05790
C163        C  0.08370624  0.52589368  0.85905821     0.02830
C164        C  0.10881420  0.49059912  0.85091651    -0.13320
C165        C  0.12342842  0.46387263  0.88386770     0.00330
C166        C  0.10104136  0.46703846  0.92367913    -0.11850
C167        C  0.06407849  0.49502901  0.92776007     0.02820
C168        C  0.05608092  0.52408067  0.89397704    -0.11270
H169        H  0.12240111  0.48908230  0.81961072     0.08410
H170        H  0.11071704  0.44698995  0.95025449     0.05940
H171        H  0.02792330  0.54459608  0.89386559     0.05790
C172        C  0.96339773  0.60928925  0.10626219     0.02830
C173        C  0.96894434  0.58592839  0.06931517    -0.13320
C174        C  0.00251091  0.55531820  0.06731462     0.00330
C175        C  0.03444030  0.55473514  0.10057189    -0.11850
C176        C  0.03288718  0.58558433  0.13294668     0.02820
C177        C  0.99465257  0.60766276  0.13780511    -0.11270
H178        H  0.94540140  0.58885674  0.04400350     0.08410
H179        H  0.05980472  0.53107794  0.10150770     0.05940
H180        H  0.99107695  0.62808973  0.16519932     0.05790
C181        C  0.87054562  0.52729428  0.10638399     0.02830
C182        C  0.89550896  0.52306007  0.06830015    -0.13320
C183        C  0.93169974  0.49366163  0.06653242     0.00330
C184        C  0.93677158  0.46449449  0.10107734    -0.11850
C185        C  0.90798622  0.46462425  0.13539398     0.02820
C186        C  0.88259057  0.50086514  0.14083778    -0.11270
H187        H  0.88801612  0.54322796  0.04113251     0.08410
H188        H  0.96309779  0.44181193  0.10181249     0.05940
H189        H  0.86649580  0.50366756  0.17101054     0.05790
C190        C  0.96386661  0.40514220  0.86093390     0.02830
C191        C  0.96183772  0.43186538  0.89636428    -0.13320
C192        C  0.99552660  0.43110495  0.92743301     0.00330
C193        C  0.03102369  0.40304351  0.92018080    -0.11850
C194        C  0.03700145  0.38570813  0.87950966     0.02820
C195        C  0.00407853  0.38992385  0.84983878    -0.11270
H196        H  0.93649192  0.45513698  0.89716064     0.08410
H197        H  0.05541748  0.39794012  0.94439604     0.05940
H198        H  0.00681707  0.37317974  0.82003574     0.05790
C199        C  0.89493078  0.36591645  0.03028171     0.02830
C200        C  0.87402918  0.35815610  0.99254533    -0.13320
C201        C  0.87273684  0.38852347  0.95998959     0.00330
C202        C  0.89670838  0.42649450  0.96508400    -0.11850
C203        C  0.92880295  0.42871706  0.99749115     0.02820
C204        C  0.92725464  0.39735486  0.03052656    -0.11270
H205        H  0.85387769  0.32977226  0.99043465     0.08410
H206        H  0.89130263  0.45310865  0.94381732     0.05940
H207        H  0.95069293  0.39661031  0.05564468     0.05790
C208        C  0.49993087  0.46116658  0.53271668     0.01980
C209        C  0.53248153  0.46062472  0.49994463     0.01980
C210        C  0.53452242  0.49484170  0.46825304     0.01980
C211        C  0.50215355  0.52912323  0.46858527     0.01980
C212        C  0.46826179  0.52866025  0.50085726     0.01980
C213        C  0.46847141  0.49546486  0.53336467     0.01980
C214        C  0.53331128  0.40230898  0.63590053     0.02830
C215        C  0.53168821  0.43210026  0.60220997    -0.13320
C216        C  0.50097309  0.42770725  0.56897599     0.00330
C217        C  0.47264268  0.39118146  0.57118033    -0.11850
C218        C  0.46998133  0.36571941  0.60916172     0.02820
C219        C  0.49749163  0.37672765  0.64259711    -0.11270
H220        H  0.55433855  0.45835054  0.60209688     0.08410
H221        H  0.45231101  0.38354468  0.54438441     0.05940
H222        H  0.49611139  0.35982134  0.67265669     0.05790
C223        C  0.35666030  0.57485330  0.46974469     0.02830
C224        C  0.34579132  0.59329049  0.50766433    -0.13320
C225        C  0.37850319  0.61113060  0.53260614     0.00330
C226        C  0.42145423  0.59386987  0.52718931    -0.11850
C227        C  0.42879410  0.55903839  0.49865926     0.02820
C228        C  0.39502923  0.55078171  0.46936053    -0.11270
H229        H  0.31220490  0.60134605  0.51211518     0.08410
H230        H  0.44828325  0.60630753  0.54525168     0.05940
H231        H  0.39706502  0.52447625  0.44772216     0.05790
C232        C  0.63787805  0.52858572  0.40751674     0.02830
C233        C  0.60474515  0.52738427  0.43780203    -0.13320
C234        C  0.57224256  0.49525850  0.43612859     0.00330
C235        C  0.57746769  0.46341518  0.40407561    -0.11850
C236        C  0.61798876  0.45847982  0.38238272     0.02820
C237        C  0.64854155  0.49104806  0.38884400    -0.11270
H238        H  0.60585863  0.54980595  0.46326326     0.08410
H239        H  0.55054270  0.44309515  0.39738300     0.05940
H240        H  0.67724456  0.49408451  0.36970501     0.05790
C241        C  0.46558507  0.60508943  0.37760313     0.02830
C242        C  0.50360227  0.62526300  0.36872087    -0.13320
C243        C  0.54128098  0.61822827  0.39032262     0.00330
C244        C  0.53838342  0.59323295  0.42799979    -0.11850
C245        C  0.50260017  0.56431546  0.43399010     0.02820
C246        C  0.46696196  0.56962019  0.40544245    -0.11270
H247        H  0.50350054  0.64897658  0.34378510     0.08410
H248        H  0.56256812  0.59734694  0.45197857     0.05940
H249        H  0.44124193  0.54695236  0.40399279     0.05790
C250        C  0.39787270  0.53053463  0.62764279     0.02830
C251        C  0.43120937  0.53033219  0.59712736    -0.13320
C252        C  0.43461114  0.49584327  0.56826961     0.00330
C253        C  0.40534938  0.46121161  0.57331740    -0.11850
C254        C  0.37836759  0.45888742  0.60900821     0.02820
C255        C  0.37454321  0.49368095  0.63506856    -0.11270
H256        H  0.45327946  0.55698459  0.59533966     0.08410
H257        H  0.40449279  0.43575958  0.55067478     0.05940
H258        H  0.35118361  0.49272223  0.66078140     0.05790
C259        C  0.62729620  0.38534634  0.53192974     0.02830
C260        C  0.59765770  0.41983463  0.53194290    -0.13320
C261        C  0.56546612  0.42423971  0.49951713     0.00330
C262        C  0.56566937  0.39399443  0.46614369    -0.11850
C263        C  0.60157549  0.36663174  0.46127015     0.02820
C264        C  0.63100871  0.36324461  0.49432774    -0.11270
H265        H  0.60005512  0.44344091  0.55586086     0.08410
H266        H  0.53996217  0.39387739  0.44292838     0.05940
H267        H  0.65875682  0.34238985  0.49017604     0.05790
C268        C  0.03328614  0.96108478  0.50313181     0.01980
C269        C  0.03220781  0.99299977  0.53587377     0.01980
C270        C  0.00056028  0.02719527  0.53431907     0.01980
C271        C  0.97021299  0.02910550  0.49949208     0.01980
C272        C  0.96975157  0.99679065  0.46778003     0.01980
C273        C  0.00063415  0.96261674  0.47035067     0.01980
C274        C  0.01913445  0.13389063  0.59573218     0.02830
C275        C  0.97965339  0.13260933  0.61717763    -0.13320
C276        C  0.96001191  0.09395284  0.62907632     0.00330
C277        C  0.97016355  0.05751870  0.60452760    -0.11850
C278        C  0.99868175  0.06173447  0.56895985     0.02820
C279        C  0.02461568  0.09988850  0.56639327    -0.11270
H280        H  0.96588521  0.16173659  0.62915624     0.08410
H281        H  0.95455040  0.02722660  0.61111694     0.05940
H282        H  0.04731765  0.10286703  0.54090057     0.05790
C283        C  0.10775850  0.03808117  0.61705077     0.02830
C284        C  0.10506820  0.00714620  0.64896999    -0.13320
C285        C  0.09259073  0.96622564  0.63952318     0.00330
C286        C  0.06626223  0.96051651  0.60362144    -0.11850
C287        C  0.06459539  0.99291545  0.57156868     0.02820
C288        C  0.09115923  0.02915542  0.57679895    -0.11270
H289        H  0.12012042  0.01265446  0.67951627     0.08410
H290        H  0.04762757  0.93184031  0.60195695     0.05940
H291        H  0.09546383  0.05172714  0.55101892     0.05790
C292        C  0.08482135  0.85257530  0.53208489     0.02830
C293        C  0.05844628  0.88909908  0.53285125    -0.13320
C294        C  0.06562365  0.92361442  0.50430200     0.00330
C295        C  0.10213244  0.91980277  0.47615872    -0.11850
C296        C  0.12372363  0.87938198  0.47144469     0.02820
C297        C  0.10753786  0.84491431  0.49527002    -0.11270
H298        H  0.03168564  0.88946333  0.55466816     0.08410
H299        H  0.11273315  0.94727179  0.45780426     0.05940
H300        H  0.11945590  0.81285562  0.49039535     0.05790
C301        C  0.90318841  0.12764625  0.46673281     0.02830
C302        C  0.88150765  0.13358989  0.50439552    -0.13320
C303        C  0.88074444  0.10215635  0.53560561     0.00330
C304        C  0.90604923  0.06545299  0.53111312    -0.11850
C305        C  0.93664572  0.06374358  0.49824825     0.02820
C306        C  0.93509028  0.09569489  0.46579803    -0.11270
H307        H  0.86091245  0.16158660  0.50771767     0.08410
H308        H  0.90460921  0.03987254  0.55424775     0.05940
H309        H  0.95848811  0.09668345  0.44103507     0.05790
C310        C  0.92214601  0.03081445  0.35978194     0.02830
C311        C  0.89925628  0.99396876  0.35098326    -0.13320
C312        C  0.88186797  0.96926106  0.38420898     0.00330
C313        C  0.90218566  0.97293913  0.42469063    -0.11850
C314        C  0.93919284  0.00000533  0.42964718     0.02820
C315        C  0.94800691  0.02967573  0.39638825    -0.11270
H316        H  0.88868820  0.98988069  0.31872877     0.08410
H317        H  0.89087850  0.95393871  0.45127370     0.05940
H318        H  0.97570429  0.05061181  0.39773407     0.05790
C319        C  0.96545036  0.87048602  0.39897870     0.02830
C320        C  0.96539475  0.89953950  0.43268260    -0.13320
C321        C  0.00010087  0.92923237  0.43678254     0.00330
C322        C  0.03451817  0.92780831  0.40767737    -0.11850
C323        C  0.03656336  0.89466511  0.37876243     0.02820
C324        C  0.00200704  0.86703781  0.37435899    -0.11270
H325        H  0.93837523  0.89991694  0.45428730     0.08410
H326        H  0.06044526  0.95091859  0.40881657     0.05940
H327        H  0.00341963  0.84242748  0.35037421     0.05790
O328        O  0.24880714  0.18091118  0.68290048    -0.80440
O329        O  0.24817319  0.31145346  0.68443910    -0.80460
O330        O  0.15454079  0.20796851  0.72948985    -0.80470
O331        O  0.34184787  0.28065829  0.73319338    -0.80410
O332        O  0.18543927  0.24706016  0.67940708    -0.80540
O333        O  0.31007793  0.24581988  0.68218879    -0.80450
O334        O  0.28092256  0.33910357  0.73878011    -0.80440
O335        O  0.21557566  0.15051674  0.73630104    -0.80480
C336        C  0.22139979  0.15393158  0.69688062     1.09250
C337        C  0.27386494  0.33878346  0.69931617     1.09140
C338        C  0.15536283  0.22191443  0.69092612     1.09270
C339        C  0.33985401  0.27015158  0.69405988     1.09150
O340        O  0.34492374  0.21291812  0.76653685    -0.80440
O341        O  0.15240761  0.27501048  0.75945457    -0.80520
O342        O  0.24812088  0.17894511  0.81580710    -0.80450
O343        O  0.24805307  0.30435318  0.81818119    -0.80430
O344        O  0.21089744  0.33575002  0.76706075    -0.80480
O345        O  0.28489535  0.15276930  0.76279368    -0.80450
O346        O  0.31078419  0.24424296  0.81737102    -0.80410
O347        O  0.18055418  0.24251641  0.81438480    -0.80480
Co348      Co  0.29349315  0.20203967  0.72389031     1.51530
Co349      Co  0.20350394  0.28861263  0.72306370     1.51690
Co350      Co  0.20322827  0.19921809  0.77409663     1.51570
Co351      Co  0.29162767  0.28772760  0.77612972     1.51470
O352        O  0.24770067  0.24420191  0.74930411    -1.42370
C353        C  0.34250044  0.22244559  0.80598183     1.09180
C354        C  0.15352049  0.26908560  0.79908525     1.09270
C355        C  0.27715960  0.15366738  0.80183683     1.09200
C356        C  0.22298852  0.33384472  0.80593781     1.09180
O357        O  0.76514872  0.14824355  0.28387344    -0.80440
O358        O  0.76340624  0.33428958  0.21159875    -0.80460
O359        O  0.81808031  0.24172837  0.18545951    -0.80470
O360        O  0.81861460  0.24179705  0.31021005    -0.80410
O361        O  0.76294403  0.27479208  0.15593914    -0.80540
O362        O  0.76408801  0.20729383  0.33919874    -0.80450
O363        O  0.81836816  0.30589849  0.24560135    -0.80440
O364        O  0.81877432  0.17866893  0.25006653    -0.80480
C365        C  0.80572805  0.15097893  0.27676042     1.09250
C366        C  0.80380003  0.33404915  0.21989715     1.09140
C367        C  0.80343399  0.26720922  0.15731321     1.09270
C368        C  0.80389630  0.21757775  0.33925882     1.09150
O369        O  0.68054490  0.24234650  0.31105789    -0.80440
O370        O  0.68061912  0.24003823  0.18537187    -0.80520
O371        O  0.73570542  0.14752495  0.21587433    -0.80450
O372        O  0.73514647  0.33332717  0.27966825    -0.80430
O373        O  0.67963914  0.30600034  0.24621117    -0.80480
O374        O  0.68058613  0.17606144  0.24832021    -0.80450
O375        O  0.73618787  0.27547180  0.33799599    -0.80410
O376        O  0.73549989  0.20616759  0.15740778    -0.80480
Co377      Co  0.72253908  0.19751700  0.29145984     1.51530
Co378      Co  0.72189330  0.28462054  0.20393137     1.51690
Co379      Co  0.77675903  0.19743248  0.20602248     1.51570
Co380      Co  0.77677581  0.28497911  0.28931245     1.51470
O381        O  0.74928261  0.24115054  0.24769098    -1.42370
C382        C  0.69568271  0.26937089  0.33706096     1.09180
C383        C  0.69503187  0.21382761  0.15858056     1.09270
C384        C  0.69521498  0.14775876  0.22363340     1.09200
C385        C  0.69519259  0.33476774  0.26959288     1.09180
O386        O  0.30661501  0.67386643  0.25233045    -0.80440
O387        O  0.17950995  0.67613645  0.25683886    -0.80460
O388        O  0.28347981  0.72659335  0.34602021    -0.80470
O389        O  0.20492145  0.73088684  0.16532329    -0.80410
O390        O  0.24629789  0.67504246  0.31732345    -0.80540
O391        O  0.24085889  0.67567557  0.19119213    -0.80450
O392        O  0.14953491  0.73074337  0.22419370    -0.80440
O393        O  0.33714824  0.72775212  0.28408165    -0.80480
C394        C  0.33602044  0.68814580  0.27594825     1.09250
C395        C  0.15158374  0.69056696  0.23061118     1.09140
C396        C  0.27328143  0.68693890  0.34480449     1.09270
C397        C  0.21597871  0.69175912  0.16330025     1.09150
O398        O  0.27453408  0.75656183  0.16171309    -0.80440
O399        O  0.21482989  0.75875488  0.34841093    -0.80520
O400        O  0.30887659  0.80997822  0.25151437    -0.80450
O401        O  0.18115881  0.81152028  0.25772144    -0.80430
O402        O  0.15243108  0.75702752  0.29181475    -0.80480
O403        O  0.33648898  0.75651963  0.21650165    -0.80450
O404        O  0.24417355  0.81226446  0.18971975    -0.80410
O405        O  0.24836197  0.81128172  0.31605455    -0.80480
Co406      Co  0.28580062  0.71601496  0.20995484     1.51530
Co407      Co  0.20202265  0.71699562  0.29980857     1.51690
Co408      Co  0.29003840  0.76870088  0.29581285     1.51570
Co409      Co  0.19913578  0.77140244  0.21308861     1.51470
O410        O  0.24410849  0.74318819  0.25453312    -1.42370
C411        C  0.26937765  0.79656422  0.16201372     1.09180
C412        C  0.22529117  0.79840578  0.34635368     1.09270
C413        C  0.33654531  0.79614368  0.22560204     1.09200
C414        C  0.15435392  0.79679265  0.28473873     1.09180
C415        C  0.08919600  0.83946886  0.37551757    -0.20610
C416        C  0.07653809  0.87952337  0.35981405    -0.07170
C417        C  0.09002019  0.89337048  0.31942827     0.13690
C418        C  0.11614810  0.86615769  0.29536656    -0.20660
C419        C  0.12616743  0.82454540  0.31007820    -0.07180
C420        C  0.10970663  0.81027429  0.34994927     0.13680
C421        C  0.10983074  0.76422138  0.36565142    -0.24010
H422        H  0.07694135  0.82885778  0.40611394     0.14970
H423        H  0.12755201  0.87680507  0.26455379     0.15000
C424        C  0.07548798  0.93587137  0.30154464    -0.23960
H425        H  0.09252080  0.76014066  0.39623503     0.05210
H426        H  0.14292254  0.75235310  0.37135889     0.08440
H427        H  0.09277868  0.74369541  0.34254517     0.08440
H428        H  0.08646735  0.96180629  0.32269024     0.08420
H429        H  0.03958364  0.93668092  0.29911879     0.08420
H430        H  0.08905561  0.94194824  0.26948908     0.05200
C431        C  0.85591319  0.07465731  0.35957855    -0.20610
C432        C  0.89877840  0.07046690  0.34535294    -0.07170
C433        C  0.91219875  0.09606477  0.31077466     0.13690
C434        C  0.88174734  0.12295276  0.28969042    -0.20660
C435        C  0.83736625  0.12305266  0.30092105    -0.07180
C436        C  0.82459443  0.09787530  0.33656493     0.13680
C437        C  0.77787786  0.09293695  0.34995180    -0.24010
H438        H  0.84575279  0.05548744  0.38666266     0.14970
H439        H  0.89245391  0.14271649  0.26329285     0.15000
C440        C  0.95836228  0.09441306  0.29596430    -0.23960
H441        H  0.77447664  0.07359956  0.37951947     0.05210
H442        H  0.75913458  0.07704470  0.32454664     0.08440
H443        H  0.76320905  0.12419983  0.35636025     0.08440
H444        H  0.96645307  0.06152297  0.28584445     0.08420
H445        H  0.98033010  0.10352699  0.32227064     0.08420
H446        H  0.96400471  0.11671245  0.26884826     0.05200
C447        C  0.83664773  0.14731758  0.42990230    -0.20610
C448        C  0.88220660  0.14833375  0.42918763    -0.07170
C449        C  0.90298719  0.17475715  0.39880976     0.13690
C450        C  0.87719394  0.19804299  0.36932225    -0.20660
C451        C  0.83160202  0.19867275  0.37290587    -0.07180
C452        C  0.81204704  0.17646994  0.40711067     0.13680
C453        C  0.76652017  0.18537145  0.42288297    -0.24010
H454        H  0.81998924  0.12655874  0.45236268     0.14970
H455        H  0.89256932  0.21589767  0.34386094     0.15000
C456        C  0.95144516  0.17908983  0.39777852    -0.23960
H457        H  0.76088963  0.17053104  0.45459299     0.05210
H458        H  0.74103358  0.17258362  0.40187877     0.08440
H459        H  0.76197061  0.22037360  0.42627558     0.08440
H460        H  0.96639389  0.14804233  0.38975020     0.08420
H461        H  0.96351052  0.18961849  0.42913326     0.08420
H462        H  0.96184415  0.20302149  0.37355084     0.05200
C463        C  0.16953459  0.89012320  0.40438585    -0.20610
C464        C  0.16320363  0.87006926  0.44417221    -0.07170
C465        C  0.19200967  0.83543220  0.45447346     0.13690
C466        C  0.21106987  0.81239235  0.42176026    -0.20660
C467        C  0.21100754  0.82815119  0.38030260    -0.07180
C468        C  0.19604856  0.87073592  0.37325277     0.13680
C469        C  0.20839787  0.89578782  0.33405636    -0.24010
H470        H  0.15254900  0.91959119  0.39684067     0.14970
H471        H  0.22778532  0.78261019  0.42890585     0.15000
C472        C  0.20725640  0.82497694  0.49907083    -0.23960
H473        H  0.19243589  0.92764556  0.33298582     0.05210
H474        H  0.19969877  0.87858054  0.30495888     0.08440
H475        H  0.24399718  0.90077777  0.33403628     0.08440
H476        H  0.18165970  0.81238593  0.51990683     0.08420
H477        H  0.22202511  0.85383765  0.51306176     0.08420
H478        H  0.23299592  0.80010136  0.49924932     0.05200
C479        C  0.15119046  0.11913239  0.68832615    -0.20610
C480        C  0.19160903  0.12882724  0.67008217    -0.07170
C481        C  0.20097922  0.11378996  0.62914661     0.13690
C482        C  0.17053007  0.08718085  0.60896653    -0.20660
C483        C  0.13054242  0.07755092  0.62821090    -0.07180
C484        C  0.11976725  0.09656766  0.66695725     0.13680
C485        C  0.07662632  0.08985962  0.68874287    -0.24010
H486        H  0.14308352  0.13002188  0.71971911     0.14970
H487        H  0.17898336  0.07175597  0.57960394     0.15000
C488        C  0.24359407  0.12327486  0.60812880    -0.23960
H489        H  0.06337764  0.12081620  0.69925511     0.05210
H490        H  0.05215219  0.07515633  0.66765216     0.08440
H491        H  0.08110500  0.06921982  0.71733719     0.08440
H492        H  0.27061089  0.11143894  0.62847444     0.08420
H493        H  0.24697562  0.15829051  0.60290317     0.08420
H494        H  0.24604905  0.10760603  0.57687699     0.05200
C495        C  0.12797578  0.19526248  0.61943683    -0.20610
C496        C  0.11956733  0.20943495  0.66086420    -0.07170
C497        C  0.07638486  0.20866226  0.67463717     0.13690
C498        C  0.04470678  0.18814290  0.65034681    -0.20660
C499        C  0.05351405  0.16638637  0.61181862    -0.07180
C500        C  0.09584113  0.17382895  0.59479870     0.13680
C501        C  0.10818200  0.16030806  0.55100043    -0.24010
H502        H  0.16065904  0.19829426  0.60737068     0.14970
H503        H  0.01354750  0.18698477  0.66510624     0.15000
C504        C  0.06303691  0.22928798  0.71564746    -0.23960
H505        H  0.13936841  0.17490570  0.54097396     0.05210
H506        H  0.08302199  0.17080484  0.52785997     0.08440
H507        H  0.11288898  0.12532935  0.55013399     0.08440
H508        H  0.07408724  0.26306847  0.71587188     0.08420
H509        H  0.07691855  0.21162058  0.74321387     0.08420
H510        H  0.02734108  0.22950213  0.71977985     0.05200
C511        C  0.62379917  0.28682191  0.37262525    -0.20610
C512        C  0.66831835  0.29562311  0.36619817    -0.07170
C513        C  0.68679398  0.33079694  0.38810493     0.13690
C514        C  0.66016468  0.35732120  0.41138015    -0.20660
C515        C  0.61721239  0.34692994  0.42114163    -0.07180
C516        C  0.59867660  0.31085760  0.40162999     0.13680
C517        C  0.55357613  0.29675308  0.41281165    -0.24010
H518        H  0.60930193  0.25982544  0.35682783     0.14970
H519        H  0.67451184  0.38496463  0.42642668     0.15000
C520        C  0.73484533  0.34092898  0.38977495    -0.23960
H521        H  0.54404174  0.26770948  0.39523667     0.05210
H522        H  0.53011296  0.32257436  0.40491059     0.08440
H523        H  0.55176679  0.28930916  0.44725859     0.08440
H524        H  0.74742992  0.34887758  0.35790614     0.08420
H525        H  0.75284812  0.31339190  0.40384639     0.08420
H526        H  0.74224177  0.36890399  0.40984592     0.05200
C527        C  0.31524365  0.41020417  0.60868163    -0.20610
C528        C  0.35647964  0.42023127  0.62470068    -0.07170
C529        C  0.36919108  0.40392195  0.66489737     0.13690
C530        C  0.34084171  0.37845185  0.68786076    -0.20660
C531        C  0.29979384  0.36785208  0.67222577    -0.07180
C532        C  0.28630615  0.38448094  0.63231951     0.13680
C533        C  0.24092065  0.37774841  0.61595386    -0.24010
H534        H  0.30455377  0.42514560  0.57925145     0.14970
H535        H  0.35147813  0.36647271  0.71859357     0.15000
C536        C  0.41125794  0.41553241  0.68637078    -0.23960
H537        H  0.23539124  0.39507313  0.58544341     0.05210
H538        H  0.21722920  0.38986103  0.63929197     0.08440
H539        H  0.23466082  0.34337198  0.61051002     0.08440
H540        H  0.40434472  0.43510106  0.71462703     0.08420
H541        H  0.43350278  0.43380690  0.66543498     0.08420
H542        H  0.42804374  0.38591403  0.69711153     0.05200
C543        C  0.39791225  0.59832993  0.33316853    -0.20610
C544        C  0.42768682  0.62405464  0.35505564    -0.07170
C545        C  0.42708406  0.66937313  0.34751342     0.13690
C546        C  0.40278621  0.68550632  0.31477518    -0.20660
C547        C  0.36989556  0.66163319  0.29624845    -0.07180
C548        C  0.36768955  0.61703980  0.30460257     0.13680
C549        C  0.33461056  0.58937034  0.28329601    -0.24010
H550        H  0.39861123  0.56397144  0.33795620     0.14970
H551        H  0.40689955  0.71920581  0.30702026     0.15000
C552        C  0.45286246  0.70288868  0.37158219    -0.23960
H553        H  0.33769583  0.55535901  0.29351225     0.05210
H554        H  0.33900982  0.59127102  0.24843807     0.08440
H555        H  0.30155991  0.60032045  0.29125619     0.08440
H556        H  0.47797256  0.71726785  0.35066917     0.08420
H557        H  0.46858442  0.69022325  0.40077924     0.08420
H558        H  0.43116679  0.72944296  0.38103852     0.05200
C559        C  0.67660999  0.42251793  0.34143654    -0.20610
C560        C  0.63160300  0.42484563  0.34986901    -0.07170
C561        C  0.60478398  0.39738237  0.32500475     0.13690
C562        C  0.62468704  0.36826775  0.29631620    -0.20660
C563        C  0.66948863  0.37065731  0.28747167    -0.07180
C564        C  0.69299010  0.40396767  0.30576663     0.13680
C565        C  0.73660909  0.41958937  0.29025205    -0.24010
H566        H  0.70085413  0.43516277  0.36258250     0.14970
H567        H  0.60560298  0.34337724  0.28175339     0.15000
C568        C  0.55637559  0.39667269  0.32898752    -0.23960
H569        H  0.73566466  0.45496706  0.28656013     0.05210
H570        H  0.74486501  0.40699531  0.25867868     0.08440
H571        H  0.76244922  0.41100791  0.31342248     0.08440
H572        H  0.54311847  0.42929729  0.32342874     0.08420
H573        H  0.54717868  0.38428986  0.36070019     0.08420
H574        H  0.54134535  0.37523137  0.30535339     0.05200
C575        C  0.30198007  0.58584566  0.41154486    -0.20610
C576        C  0.34030458  0.59903278  0.43158959    -0.07170
C577        C  0.35594078  0.64102667  0.42249200     0.13690
C578        C  0.33312759  0.66794794  0.39431124    -0.20660
C579        C  0.29478064  0.65521871  0.37438588    -0.07180
C580        C  0.27887284  0.61330391  0.38333116     0.13680
C581        C  0.23623540  0.59803845  0.36572297    -0.24010
H582        H  0.28876939  0.55476061  0.41986554     0.14970
H583        H  0.34525634  0.69997534  0.38837455     0.15000
C584        C  0.39421582  0.66032085  0.44543539    -0.23960
H585        H  0.22778494  0.56563133  0.37794694     0.05210
H586        H  0.23760444  0.59626004  0.33072764     0.08440
H587        H  0.20995497  0.62025092  0.37501778     0.08440
H588        H  0.42337569  0.63999972  0.44301364     0.08420
H589        H  0.38748642  0.66631470  0.47871004     0.08420
H590        H  0.40116252  0.69293355  0.43388207     0.05200
C591        C  0.39675768  0.32745477  0.60173964    -0.20610
C592        C  0.43929511  0.32856129  0.61784593    -0.07170
C593        C  0.44959736  0.29726822  0.64968135     0.13690
C594        C  0.41684660  0.28053405  0.67539230    -0.20660
C595        C  0.37362612  0.28469682  0.66333784    -0.07180
C596        C  0.36474125  0.30194919  0.62219865     0.13680
C597        C  0.32322097  0.29208910  0.59932355    -0.24010
H598        H  0.38828033  0.34670180  0.57414615     0.14970
H599        H  0.42522473  0.26173671  0.70340344     0.15000
C600        C  0.49423216  0.27894155  0.65525387    -0.23960
H601        H  0.32069675  0.31004092  0.56879082     0.05210
H602        H  0.29484091  0.29967498  0.61878431     0.08440
H603        H  0.32219687  0.25737203  0.59253630     0.08440
H604        H  0.50812587  0.28762301  0.68645670     0.08420
H605        H  0.51531667  0.28983897  0.62918562     0.08420
H606        H  0.49272191  0.24352406  0.65344264     0.05200
C607        C  0.89857967  0.31998715  0.09699134    -0.20610
C608        C  0.87480268  0.34551816  0.06815130    -0.07170
C609        C  0.82887417  0.34502948  0.07017606     0.13690
C610        C  0.80842909  0.31500432  0.09557202    -0.20660
C611        C  0.83108277  0.29052619  0.12592130    -0.07180
C612        C  0.87707868  0.29332575  0.12697677     0.13680
C613        C  0.90352699  0.26822681  0.15881056    -0.24010
H614        H  0.93363633  0.32021903  0.09548983     0.14970
H615        H  0.77346597  0.31309323  0.09308972     0.15000
C616        C  0.79997777  0.37546012  0.04496892    -0.23960
H617        H  0.93876015  0.27420306  0.15487117     0.05210
H618        H  0.89769123  0.23348560  0.15483269     0.08440
H619        H  0.89453625  0.27760259  0.19138786     0.08440
H620        H  0.77300468  0.38705989  0.06466294     0.08420
H621        H  0.78544696  0.35862492  0.01765857     0.08420
H622        H  0.81765995  0.40435787  0.03380538     0.05200
C623        C  0.08374380  0.32039734  0.88558221    -0.20610
C624        C  0.07455708  0.35999701  0.86543930    -0.07170
C625        C  0.09211532  0.36829977  0.82464583     0.13690
C626        C  0.11674121  0.33744247  0.80529461    -0.20660
C627        C  0.12613987  0.29794640  0.82465316    -0.07180
C628        C  0.10892035  0.28881261  0.86527083     0.13680
C629        C  0.11406532  0.24522594  0.88561259    -0.24010
H630        H  0.06848854  0.31293720  0.91564940     0.14970
H631        H  0.12879910  0.34496986  0.77385988     0.15000
C632        C  0.08331654  0.40806957  0.79816393    -0.23960
H633        H  0.09712910  0.24317243  0.91654905     0.05210
H634        H  0.14870815  0.23769290  0.89128798     0.08440
H635        H  0.10004359  0.22067746  0.86453351     0.08440
H636        H  0.06422939  0.43247615  0.81474858     0.08420
H637        H  0.06512684  0.39926217  0.76914780     0.08420
H638        H  0.11445242  0.42263487  0.78815957     0.05200
C639        C  0.84605880  0.41628082  0.13971792    -0.20610
C640        C  0.88840614  0.42439379  0.15341440    -0.07170
C641        C  0.90430509  0.40082812  0.18873906     0.13690
C642        C  0.87690386  0.37055154  0.20935359    -0.20660
C643        C  0.83274054  0.36608350  0.19783699    -0.07180
C644        C  0.81693796  0.39182704  0.16366785     0.13680
C645        C  0.76922809  0.39613893  0.15290342    -0.24010
H646        H  0.83469683  0.43246957  0.11128521     0.14970
H647        H  0.88972951  0.35162979  0.23555966     0.15000
C648        C  0.94948975  0.40712486  0.20535861    -0.23960
H649        H  0.76307078  0.41933892  0.12681432     0.05210
H650        H  0.75137455  0.40812549  0.18077403     0.08440
H651        H  0.75527048  0.36539132  0.14271435     0.08440
H652        H  0.94807874  0.41783203  0.23869890     0.08420
H653        H  0.96774305  0.43131410  0.18659700     0.08420
H654        H  0.96745690  0.37638312  0.20417708     0.05200
C655        C  0.07197424  0.65158130  0.14719914    -0.20610
C656        C  0.07046453  0.60710955  0.15411290    -0.07170
C657        C  0.09573412  0.58957043  0.18742911     0.13690
C658        C  0.12270725  0.61694029  0.21167766    -0.20660
C659        C  0.12232141  0.66195144  0.20544902    -0.07180
C660        C  0.09478206  0.67916859  0.17325228     0.13680
C661        C  0.08748226  0.72658259  0.16556363    -0.24010
H662        H  0.05231383  0.66539126  0.12188366     0.14970
H663        H  0.14304756  0.60323344  0.23640068     0.15000
C664        C  0.09279668  0.54277605  0.19846630    -0.23960
H665        H  0.06334510  0.73311338  0.14007973     0.05210
H666        H  0.11786873  0.74242160  0.15550524     0.08440
H667        H  0.07478982  0.74144553  0.19474043     0.08440
H668        H  0.10256177  0.52344346  0.17093747     0.08420
H669        H  0.05894336  0.53458590  0.20715929     0.08420
H670        H  0.11421080  0.53415119  0.22562477     0.05200
C671        C  0.20982746  0.40969360  0.81791434    -0.20610
C672        C  0.20949803  0.36855765  0.83484998    -0.07170
C673        C  0.19347225  0.36250760  0.87652199     0.13690
C674        C  0.16735242  0.39494241  0.89458556    -0.20660
C675        C  0.16195562  0.43500283  0.87396448    -0.07180
C676        C  0.19036584  0.44354949  0.83875856     0.13680
C677        C  0.20302846  0.48706709  0.82168009    -0.24010
H678        H  0.22644865  0.41574189  0.78816296     0.14970
H679        H  0.14994366  0.38812017  0.92358903     0.15000
C680        C  0.20390668  0.32260007  0.90161248    -0.23960
H681        H  0.23887681  0.49016255  0.82227882     0.05210
H682        H  0.19054120  0.51332832  0.84030156     0.08440
H683        H  0.19178459  0.49106185  0.78836675     0.08440
H684        H  0.23927556  0.32153740  0.90806517     0.08420
H685        H  0.19529810  0.29385177  0.88361816     0.08420
H686        H  0.18657508  0.32168135  0.93237716     0.05200
C687        C  0.13732322  0.66979325  0.08111620    -0.20610
C688        C  0.13727772  0.62525296  0.07499060    -0.07170
C689        C  0.16798789  0.60068309  0.09913579     0.13690
C690        C  0.19530021  0.62212808  0.12833666    -0.20660
C691        C  0.19728106  0.66714144  0.12819441    -0.07180
C692        C  0.17253863  0.68984831  0.09813217     0.13680
C693        C  0.18238767  0.73471114  0.08233939    -0.24010
H694        H  0.11180225  0.69033218  0.06886241     0.14970
H695        H  0.21497593  0.60400410  0.15072816     0.15000
C696        C  0.17239143  0.55305967  0.09551430    -0.23960
H697        H  0.18246717  0.73508082  0.04713709     0.05210
H698        H  0.21505396  0.74572596  0.09201731     0.08440
H699        H  0.15732864  0.75748234  0.09316590     0.08440
H700        H  0.17866162  0.54450113  0.06209566     0.08420
H701        H  0.14271250  0.53717670  0.10739995     0.08420
H702        H  0.19985630  0.54059732  0.11492334     0.05200
C703        C  0.29081045  0.86696070  0.12550593    -0.20610
C704        C  0.29550986  0.82212106  0.13047741    -0.07170
C705        C  0.32770891  0.80139080  0.10568314     0.13690
C706        C  0.35533603  0.82579826  0.08079169    -0.20660
C707        C  0.34893815  0.86944856  0.07270653    -0.07180
C708        C  0.31641506  0.89070760  0.09593203     0.13680
C709        C  0.30814361  0.93765077  0.08926810    -0.24010
H710        H  0.26652140  0.88326679  0.14395520     0.14970
H711        H  0.38099818  0.80948862  0.06412347     0.15000
C712        C  0.33402060  0.75327181  0.10322439    -0.23960
H713        H  0.28026556  0.94870642  0.10837291     0.05210
H714        H  0.30087624  0.94441907  0.05535361     0.08440
H715        H  0.33707005  0.95607781  0.09913851     0.08440
H716        H  0.30359343  0.73791410  0.09237035     0.08420
H717        H  0.34457062  0.73968808  0.13419151     0.08420
H718        H  0.35929827  0.74411456  0.08009427     0.05200
C719        C  0.39778306  0.89243393  0.17653023    -0.20610
C720        C  0.42700245  0.87045833  0.15066177    -0.07170
C721        C  0.42593242  0.82496552  0.15072896     0.13690
C722        C  0.39959244  0.80320000  0.17912262    -0.20660
C723        C  0.36877033  0.82431108  0.20367197    -0.07180
C724        C  0.36786828  0.86984128  0.20247809     0.13680
C725        C  0.33601594  0.89477462  0.22833004    -0.24010
H726        H  0.39889742  0.92705207  0.17702305     0.14970
H727        H  0.40163051  0.76859149  0.17974628     0.15000
C728        C  0.45191118  0.79773821  0.12058031    -0.23960
H729        H  0.34008785  0.92980614  0.22356793     0.05210
H730        H  0.34089530  0.88733997  0.26251011     0.08440
H731        H  0.30241193  0.88648474  0.21893760     0.08440
H732        H  0.47957774  0.78260675  0.13769511     0.08420
H733        H  0.46381844  0.81628687  0.09277110     0.08420
H734        H  0.43140357  0.77180520  0.10774452     0.05200
C735        C  0.39882909  0.16866440  0.90252790    -0.20610
C736        C  0.44163817  0.16638878  0.88753816    -0.07170
C737        C  0.45272471  0.19774052  0.85587493     0.13690
C738        C  0.42039764  0.21389966  0.82839110    -0.20660
C739        C  0.37656007  0.20908827  0.83828803    -0.07180
C740        C  0.36705095  0.19338639  0.88002191     0.13680
C741        C  0.32507843  0.20413825  0.90158957    -0.24010
H742        H  0.38969392  0.15008423  0.93029254     0.14970
H743        H  0.42953937  0.23172213  0.80010209     0.15000
C744        C  0.49871579  0.21266312  0.84925241    -0.23960
H745        H  0.32248250  0.18785323  0.93298425     0.05210
H746        H  0.32370418  0.23917629  0.90658827     0.08440
H747        H  0.29668601  0.19531328  0.88232998     0.08440
H748        H  0.50978386  0.20493947  0.81682211     0.08420
H749        H  0.52121202  0.19786963  0.87276319     0.08420
H750        H  0.50022722  0.24786439  0.85310402     0.05200
C751        C  0.37510834  0.09518964  0.84420840    -0.20610
C752        C  0.35989557  0.07786375  0.88226568    -0.07170
C753        C  0.31749566  0.08754025  0.89582871     0.13690
C754        C  0.29095504  0.11343374  0.86978655    -0.20660
C755        C  0.30479179  0.12609073  0.82912224    -0.07180
C756        C  0.34644832  0.11263258  0.81496942     0.13680
C757        C  0.36035381  0.11075385  0.76895583    -0.24010
H758        H  0.40736781  0.08638870  0.83380471     0.14970
H759        H  0.25883103  0.12211871  0.88043912     0.15000
C760        C  0.29901939  0.06962410  0.93635213    -0.23960
H761        H  0.39212244  0.09451935  0.76515853     0.05210
H762        H  0.36421949  0.14261394  0.75435231     0.08440
H763        H  0.33645256  0.09185963  0.75069791     0.08440
H764        H  0.32275949  0.04986730  0.95437143     0.08420
H765        H  0.27043993  0.04942791  0.92910498     0.08420
H766        H  0.28874117  0.09631034  0.95685625     0.05200
C767        C  0.59862508  0.16747761  0.09622955    -0.20610
C768        C  0.62093924  0.13778374  0.07145982    -0.07170
C769        C  0.66597450  0.13193377  0.07778136     0.13690
C770        C  0.68826643  0.15953037  0.10378394    -0.20660
C771        C  0.66691350  0.18964548  0.12885240    -0.07180
C772        C  0.62106076  0.19289943  0.12586080     0.13680
C773        C  0.59577131  0.22331057  0.15277490    -0.24010
H774        H  0.56412581  0.17179737  0.09135951     0.14970
H775        H  0.72312778  0.15586573  0.10529814     0.15000
C776        C  0.69214030  0.09740325  0.05636631    -0.23960
H777        H  0.56049381  0.22172594  0.14591011     0.05210
H778        H  0.60669633  0.25661718  0.14652277     0.08440
H779        H  0.60053622  0.21499996  0.18678489     0.08440
H780        H  0.71275591  0.11197333  0.03128796     0.08420
H781        H  0.67146072  0.07215340  0.04253239     0.08420
H782        H  0.71369040  0.08109871  0.07966029     0.05200
C783        C  0.65564110  0.05918338  0.15055268    -0.20610
C784        C  0.61073962  0.05759008  0.15739462    -0.07170
C785        C  0.59289589  0.08707184  0.18601548     0.13690
C786        C  0.62061464  0.11643513  0.20715499    -0.20660
C787        C  0.66627022  0.11551788  0.20212365    -0.07180
C788        C  0.68365256  0.08452513  0.17433324     0.13680
C789        C  0.73170929  0.07606243  0.16966796    -0.24010
H790        H  0.66944335  0.03831500  0.12713783     0.14970
H791        H  0.60655113  0.13967364  0.22818030     0.15000
C792        C  0.54507313  0.08726117  0.19451750    -0.23960
H793        H  0.73838522  0.04832998  0.14908606     0.05210
H794        H  0.74614469  0.06833530  0.20113566     0.08440
H795        H  0.74829895  0.10396284  0.15503953     0.08440
H796        H  0.53488965  0.05544115  0.20695101     0.08420
H797        H  0.52718508  0.09456848  0.16471999     0.08420
H798        H  0.53627056  0.11174274  0.21813145     0.05200
C799        C  0.83818587  0.90029864  0.39478619    -0.20610
C800        C  0.84485876  0.93952121  0.37335905    -0.07170
C801        C  0.81885286  0.94724970  0.33674133     0.13690
C802        C  0.80227715  0.91283191  0.31457696    -0.20660
C803        C  0.80169824  0.87184337  0.33214736    -0.07180
C804        C  0.81386629  0.86717083  0.37568517     0.13680
C805        C  0.80143562  0.82937768  0.40316942    -0.24010
H806        H  0.85311859  0.89457690  0.42542435     0.14970
H807        H  0.78785832  0.91855772  0.28392651     0.15000
C808        C  0.80176189  0.99091861  0.32496630    -0.23960
H809        H  0.77574725  0.83949897  0.42540750     0.05210
H810        H  0.78934066  0.80177004  0.38531025     0.08440
H811        H  0.82934779  0.81847325  0.42262569     0.08440
H812        H  0.82456944  0.01011222  0.30569839     0.08420
H813        H  0.79308830  0.00736570  0.35447062     0.08420
H814        H  0.77147581  0.98864649  0.30595419     0.05200
C815        C  0.69486977  0.94605559  0.14889716    -0.20610
C816        C  0.66679073  0.93253480  0.11614852    -0.07170
C817        C  0.67637742  0.89168218  0.09922098     0.13690
C818        C  0.70333708  0.86264738  0.12286053    -0.20660
C819        C  0.72134331  0.87385300  0.16249781    -0.07180
C820        C  0.71985202  0.91738243  0.17325639     0.13680
C821        C  0.74381120  0.93410467  0.21108532    -0.24010
H822        H  0.69400791  0.97881865  0.15897373     0.14970
H823        H  0.70794741  0.83037600  0.11168184     0.15000
C824        C  0.66045160  0.87901430  0.05618918    -0.23960
H825        H  0.74230928  0.96954110  0.21280836     0.05210
H826        H  0.77845965  0.92474815  0.20923300     0.08440
H827        H  0.72891669  0.92113611  0.24044398     0.08440
H828        H  0.67290705  0.90199284  0.03204317     0.08420
H829        H  0.62483780  0.87880149  0.05483298     0.08420
H830        H  0.67192639  0.84656132  0.04777273     0.05200
C831        C  0.88925080  0.70015089  0.13041905    -0.20610
C832        C  0.87599787  0.68587143  0.17087572    -0.07170
C833        C  0.88809474  0.64401234  0.18500264     0.13690
C834        C  0.90659711  0.61644687  0.15640148    -0.20660
C835        C  0.92371433  0.63165911  0.11820530    -0.07180
C836        C  0.91470270  0.67383804  0.10454549     0.13680
C837        C  0.93314855  0.69116424  0.06377999    -0.24010
H838        H  0.88121631  0.73233469  0.11986273     0.14970
H839        H  0.91492871  0.58424681  0.16690078     0.15000
C840        C  0.88624667  0.62812696  0.23058681    -0.23960
H841        H  0.92296767  0.72479568  0.05774226     0.05210
H842        H  0.92166850  0.67146638  0.03700690     0.08440
H843        H  0.96909782  0.69016600  0.06508899     0.08440
H844        H  0.85283413  0.62528827  0.24217411     0.08420
H845        H  0.90516655  0.64981920  0.25112644     0.08420
H846        H  0.90082174  0.59582324  0.23477252     0.05200
C847        C  0.89187493  0.83022136  0.31561572    -0.20610
C848        C  0.87693684  0.79128433  0.33265793    -0.07170
C849        C  0.88836698  0.78008239  0.37487061     0.13690
C850        C  0.91404033  0.80870117  0.39872253    -0.20660
C851        C  0.92742800  0.84827148  0.38138197    -0.07180
C852        C  0.91548196  0.85895146  0.33918896     0.13680
C853        C  0.93003914  0.89923947  0.31632712    -0.24010
H854        H  0.88421079  0.83950447  0.28322416     0.14970
H855        H  0.92527214  0.79939881  0.43008870     0.15000
C856        C  0.87484892  0.73797786  0.39432732    -0.23960
H857        H  0.90154524  0.91572285  0.30212418     0.05210
H858        H  0.95252454  0.89074965  0.29038223     0.08440
H859        H  0.94671892  0.92207615  0.33729434     0.08440
H860        H  0.88718836  0.71130953  0.37490276     0.08420
H861        H  0.88783723  0.73389280  0.42699467     0.08420
H862        H  0.83899450  0.73615428  0.39607493     0.05200
C863        C  0.66962736  0.59854210  0.31332385    -0.20610
C864        C  0.70308865  0.62352994  0.32974475    -0.07170
C865        C  0.71354040  0.61856487  0.37363375     0.13690
C866        C  0.68795204  0.59158160  0.39995443    -0.20660
C867        C  0.65410300  0.56702511  0.38330912    -0.07180
C868        C  0.64613117  0.56980568  0.33862518     0.13680
C869        C  0.61543476  0.53983177  0.31599829    -0.24010
H870        H  0.66221247  0.60059175  0.27977345     0.14970
H871        H  0.69667633  0.58691233  0.43297712     0.15000
C872        C  0.75369398  0.63822797  0.39247558    -0.23960
H873        H  0.60885818  0.54999437  0.28291566     0.05210
H874        H  0.58441458  0.53680273  0.33344477     0.08440
H875        H  0.63042056  0.50805129  0.31219070     0.08440
H876        H  0.75223370  0.67352518  0.39089705     0.08420
H877        H  0.78266214  0.62711119  0.37499941     0.08420
H878        H  0.75801811  0.62886202  0.42630163     0.05200
C879        C  0.78431438  0.58100221  0.17104837    -0.20610
C880        C  0.78746528  0.62364631  0.15815843    -0.07170
C881        C  0.80466703  0.63207219  0.11698184     0.13690
C882        C  0.82993813  0.59989752  0.09675953    -0.20660
C883        C  0.83261115  0.55813849  0.11423172    -0.07180
C884        C  0.80168338  0.54847524  0.14641588     0.13680
C885        C  0.78323376  0.50462966  0.15253865    -0.24010
H886        H  0.76582926  0.57275889  0.19915450     0.14970
H887        H  0.84860711  0.60794764  0.06879791     0.15000
C888        C  0.79579106  0.67380190  0.09425040    -0.23960
H889        H  0.74727738  0.50627312  0.15211583     0.05210
H890        H  0.79388650  0.49017285  0.18316954     0.08440
H891        H  0.79246449  0.48485184  0.12553352     0.08440
H892        H  0.80543851  0.70136325  0.11359492     0.08420
H893        H  0.76050983  0.67646738  0.08778561     0.08420
H894        H  0.81316480  0.67577595  0.06353610     0.05200
C895        C  0.62216930  0.79293014  0.13303283    -0.20610
C896        C  0.63513692  0.80820935  0.17284530    -0.07170
C897        C  0.61876292  0.84812439  0.18694867     0.13690
C898        C  0.59320085  0.87235241  0.15970510    -0.20660
C899        C  0.57751287  0.85591056  0.12178592    -0.07180
C900        C  0.59179239  0.81554592  0.10812924     0.13680
C901        C  0.57463088  0.79515896  0.06859259    -0.24010
H902        H  0.63394033  0.76226282  0.12234883     0.14970
H903        H  0.58034565  0.90254014  0.17058027     0.15000
C904        C  0.62515158  0.86558395  0.23104471    -0.23960
H905        H  0.60191136  0.78858573  0.04680268     0.05210
H906        H  0.55094198  0.81576074  0.05145386     0.08440
H907        H  0.55839795  0.76453470  0.07700666     0.08440
H908        H  0.65960748  0.87159671  0.23766877     0.08420
H909        H  0.61135871  0.84316056  0.25498940     0.08420
H910        H  0.60839691  0.89667373  0.23536371     0.05200
C911        C  0.60431643  0.67883552  0.30776855    -0.20610
C912        C  0.63431636  0.70248281  0.33076513    -0.07170
C913        C  0.63506156  0.69754636  0.37555710     0.13690
C914        C  0.60670794  0.66746640  0.39531558    -0.20660
C915        C  0.57914716  0.64141513  0.37098967    -0.07180
C916        C  0.58059610  0.64627598  0.32571470     0.13680
C917        C  0.55581384  0.61965442  0.29363543    -0.24010
H918        H  0.60100502  0.68331068  0.27377143     0.14970
H919        H  0.60504910  0.66538193  0.42954704     0.15000
C920        C  0.66364485  0.72502858  0.40250019    -0.23960
H921        H  0.57758382  0.61020579  0.26756706     0.05210
H922        H  0.52989877  0.63934092  0.27844481     0.08440
H923        H  0.54122468  0.59030647  0.30735727     0.08440
H924        H  0.65479659  0.75915740  0.39756407     0.08420
H925        H  0.69800204  0.72063422  0.39385456     0.08420
H926        H  0.66015234  0.71700668  0.43670568     0.05200
C927        C  0.86326074  0.36596083  0.80025251    -0.20610
C928        C  0.87317573  0.32170168  0.79836502    -0.07170
C929        C  0.91177028  0.30728570  0.81757304     0.13690
C930        C  0.93535316  0.33460600  0.84282885    -0.20660
C931        C  0.92738595  0.37897510  0.84362468    -0.07180
C932        C  0.89065097  0.39497539  0.82186020     0.13680
C933        C  0.88033928  0.44193019  0.82150941    -0.24010
H934        H  0.83395448  0.37783500  0.78517481     0.14970
H935        H  0.96281243  0.32131365  0.86009476     0.15000
C936        C  0.93117614  0.26453832  0.80869080    -0.23960
H937        H  0.85105671  0.44916653  0.80214988     0.05210
H938        H  0.90798782  0.46025744  0.80809526     0.08440
H939        H  0.87404725  0.45256180  0.85428493     0.08440
H940        H  0.93096173  0.26042362  0.77389184     0.08420
H941        H  0.91296731  0.23912371  0.82543221     0.08420
H942        H  0.96543979  0.26205627  0.81939178     0.05200
C943        C  0.85807193  0.10850943  0.69497259    -0.20610
C944        C  0.87210982  0.14483134  0.71729753    -0.07170
C945        C  0.91711908  0.14809518  0.72444798     0.13690
C946        C  0.94609526  0.12417934  0.70022634    -0.20660
C947        C  0.93156759  0.09660285  0.66830606    -0.07180
C948        C  0.88772170  0.08353433  0.67112801     0.13680
C949        C  0.87301936  0.04222733  0.65235912    -0.24010
H950        H  0.82392058  0.10066728  0.69476460     0.14970
H951        H  0.98050929  0.13007213  0.70365573     0.15000
C952        C  0.93563245  0.17483291  0.75869434    -0.23960
H953        H  0.83803561  0.03643628  0.65818683     0.05210
H954        H  0.89167576  0.01540343  0.66691967     0.08440
H955        H  0.87845070  0.04226671  0.61805300     0.08440
H956        H  0.95603394  0.15464522  0.78008031     0.08420
H957        H  0.90945973  0.18827440  0.77807955     0.08420
H958        H  0.95606362  0.20031409  0.74442300     0.05200
C959        C  0.70814591  0.12297430  0.88722844    -0.20610
C960        C  0.69082372  0.16181353  0.87190280    -0.07170
C961        C  0.64836723  0.17436111  0.88426753     0.13690
C962        C  0.62297106  0.14518310  0.90616131    -0.20660
C963        C  0.64127779  0.10839869  0.92404828    -0.07180
C964        C  0.68407379  0.09657788  0.91443207     0.13680
C965        C  0.70530597  0.05746114  0.93355810    -0.24010
H966        H  0.74093248  0.11388511  0.87902709     0.14970
H967        H  0.59033152  0.15417030  0.91528963     0.15000
C968        C  0.62994893  0.21906992  0.87886633    -0.23960
H969        H  0.73377304  0.06712614  0.95276608     0.05210
H970        H  0.71630090  0.03618393  0.90787257     0.08440
H971        H  0.68298598  0.03889667  0.95422159     0.08440
H972        H  0.59777802  0.22241641  0.89411821     0.08420
H973        H  0.65158710  0.24254530  0.89434119     0.08420
H974        H  0.62502830  0.22778534  0.84535999     0.05200
C975        C  0.78684271  0.36475576  0.87528953    -0.20610
C976        C  0.79752417  0.32137932  0.86874205    -0.07170
C977        C  0.83513931  0.30472325  0.88969111     0.13690
C978        C  0.86341265  0.33261490  0.90927297    -0.20660
C979        C  0.85077853  0.37378215  0.92059618    -0.07180
C980        C  0.81149517  0.39025481  0.90349127     0.13680
C981        C  0.79397655  0.43327346  0.91537927    -0.24010
H982        H  0.75786009  0.37792722  0.86066820     0.14970
H983        H  0.89356043  0.31991077  0.92214071     0.15000
C984        C  0.84573484  0.25753803  0.89511947    -0.23960
H985        H  0.79086287  0.45379117  0.88653244     0.05210
H986        H  0.81496557  0.44991339  0.93835275     0.08440
H987        H  0.76152159  0.42925917  0.92995447     0.08440
H988        H  0.85213873  0.24227220  0.86458230     0.08420
H989        H  0.81856200  0.24102311  0.91144178     0.08420
H990        H  0.87509264  0.25183266  0.91489659     0.05200
C991        C  0.58303565  0.14817840  0.77156906    -0.20610
C992        C  0.62655205  0.14300850  0.78292600    -0.07170
C993        C  0.63733542  0.10414529  0.80476283     0.13690
C994        C  0.60466734  0.08213023  0.82839802    -0.20660
C995        C  0.56049210  0.09196023  0.82210024    -0.07180
C996        C  0.55157958  0.11877124  0.78588622     0.13680
C997        C  0.51091895  0.11436134  0.75962269    -0.24010
H998        H  0.57415365  0.17291241  0.74870898     0.14970
H999        H  0.61372581  0.05745335  0.85116320     0.15000
C1000       C  0.68087076  0.08334108  0.79927308    -0.23960
H1001       H  0.51985792  0.10578444  0.72678397     0.05210
H1002       H  0.49282215  0.14509619  0.75837596     0.08440
H1003       H  0.48960269  0.08858979  0.77221820     0.09280
H1004       H  0.70766248  0.10523633  0.80632563     0.08420
H1005       H  0.68428996  0.07366522  0.76576627     0.08420
H1006       H  0.68428590  0.05427446  0.81966954     0.05200
C1007       C  0.62160877  0.36236815  0.71089953    -0.20610
C1008       C  0.62676401  0.32032076  0.69560919    -0.07170
C1009       C  0.60574624  0.30981890  0.65718955     0.13690
C1010       C  0.58323491  0.34173553  0.63442528    -0.20660
C1011       C  0.57422405  0.38195639  0.65168228    -0.07180
C1012       C  0.59423616  0.39255689  0.69033726     0.13680
C1013       C  0.58663874  0.43499624  0.71080835    -0.24010
H1014       H  0.63748596  0.37127986  0.74014079     0.14970
H1015       H  0.56813710  0.33374388  0.60449270     0.15000
C1016       C  0.60451251  0.26480858  0.64053565    -0.23960
H1017       H  0.61808572  0.45168436  0.71489556     0.05210
H1018       H  0.57156890  0.42987671  0.74235063     0.08440
H1019       H  0.56511685  0.45608089  0.69151359     0.08440
H1020       H  0.58756316  0.24357079  0.66356910     0.08420
H1021       H  0.63750297  0.25250950  0.63533444     0.08420
H1022       H  0.58701170  0.26294338  0.60981996     0.05200
C1023       C  0.70182261  0.36631471  0.63085363    -0.20610
C1024       C  0.71033155  0.32231718  0.62552732    -0.07170
C1025       C  0.69357818  0.30231030  0.58934020     0.13690
C1026       C  0.66124128  0.32257130  0.56653769    -0.20660
C1027       C  0.65403044  0.36710369  0.56837260    -0.07180
C1028       C  0.67544198  0.38959334  0.60132443     0.13680
C1029       C  0.67036601  0.43699394  0.60651859    -0.24010
H1030       H  0.71493617  0.38218259  0.65834331     0.14970
H1031       H  0.64296802  0.30284510  0.54489728     0.15000
C1032       C  0.70920702  0.25938034  0.57364061    -0.23960
H1033       H  0.69221710  0.44918731  0.63162534     0.05210
H1034       H  0.63677835  0.44450991  0.61617895     0.08440
H1035       H  0.67845692  0.45392554  0.57643079     0.08440
H1036       H  0.69332423  0.23244745  0.59067120     0.08420
H1037       H  0.74494657  0.25696174  0.57711712     0.08420
H1038       H  0.70175330  0.25566695  0.53941233     0.05200
C1039       C  0.87518665  0.15210359  0.59167332    -0.20610
C1040       C  0.85881819  0.11460906  0.57451205    -0.07170
C1041       C  0.81672501  0.10079997  0.58517337     0.13690
C1042       C  0.79267655  0.12454633  0.61450567    -0.20660
C1043       C  0.80831028  0.16399043  0.62919510    -0.07180
C1044       C  0.84944223  0.17900226  0.61507904     0.13680
C1045       C  0.86639863  0.22405247  0.62083897    -0.24010
H1046       H  0.90638413  0.16362009  0.58080283     0.14970
H1047       H  0.76085508  0.11359341  0.62412232     0.15000
C1048       C  0.79688143  0.06246302  0.56438736    -0.23960
H1049       H  0.89810733  0.22927752  0.60505258     0.05210
H1050       H  0.87183359  0.23118474  0.65441856     0.08440
H1051       H  0.84360953  0.24754287  0.60626649     0.08440
H1052       H  0.81699457  0.03366069  0.57086171     0.08420
H1053       H  0.79494951  0.06803484  0.52961140     0.08420
H1054       H  0.76364676  0.05613004  0.57627997     0.05200
C1055       C  0.31616761  0.83237047  0.88345145    -0.20610
C1056       C  0.33321513  0.79435136  0.86730850    -0.07170
C1057       C  0.37573858  0.78184244  0.87974815     0.13690
C1058       C  0.39925060  0.80744303  0.90858329    -0.20660
C1059       C  0.38085601  0.84457279  0.92559030    -0.07180
C1060       C  0.33877145  0.85714886  0.91229005     0.13680
C1061       C  0.31561915  0.89524743  0.93088235    -0.24010
H1062       H  0.28388521  0.84262185  0.87429009     0.14970
H1063       H  0.43062559  0.79686714  0.92016737     0.15000
C1064       C  0.39522283  0.74032504  0.86545891    -0.23960
H1065       H  0.28507588  0.90256314  0.91377069     0.05210
H1066       H  0.33693840  0.92376552  0.92985893     0.08440
H1067       H  0.30565515  0.88880067  0.96398222     0.08440
H1068       H  0.39878079  0.74034178  0.83054361     0.08420
H1069       H  0.37409565  0.71328470  0.87535843     0.08420
H1070       H  0.42783950  0.73490535  0.87953568     0.05200
C1071       C  0.09429720  0.67060177  0.89721594    -0.20610
C1072       C  0.11534951  0.65060295  0.93161276    -0.07170
C1073       C  0.16114560  0.65643259  0.93658562     0.13690
C1074       C  0.18336016  0.68252881  0.90844159    -0.20660
C1075       C  0.16329003  0.70058082  0.87282977    -0.07180
C1076       C  0.11777388  0.69570726  0.86759472     0.13680
C1077       C  0.09373713  0.71678001  0.83136329    -0.24010
H1078       H  0.05951271  0.66730103  0.89404885     0.14970
H1079       H  0.21783624  0.68699321  0.91353409     0.15000
C1080       C  0.18872438  0.63521158  0.97091939    -0.23960
H1081       H  0.05858157  0.70929255  0.83219631     0.05210
H1082       H  0.10663490  0.70555569  0.80080549     0.08440
H1083       H  0.09742901  0.75203042  0.83306021     0.08440
H1084       H  0.17464040  0.60473867  0.98260035     0.08420
H1085       H  0.19365804  0.65751807  0.99753207     0.08420
H1086       H  0.22122993  0.62676711  0.95849518     0.05200
C1087       C  0.18510250  0.90347702  0.68902551    -0.20610
C1088       C  0.16434150  0.86741127  0.70582379    -0.07170
C1089       C  0.11865907  0.86373237  0.70158726     0.13690
C1090       C  0.09546486  0.89595200  0.67932053    -0.20660
C1091       C  0.11694383  0.93143935  0.66161220    -0.07180
C1092       C  0.16287178  0.93462479  0.66612075     0.13680
C1093       C  0.19027738  0.96929746  0.64524484    -0.24010
H1094       H  0.21986201  0.90698137  0.69264701     0.14970
H1095       H  0.06060798  0.89361130  0.67593864     0.15000
C1096       C  0.09426158  0.82607826  0.71972347    -0.23960
H1097       H  0.22461406  0.95915429  0.64207993     0.05210
H1098       H  0.19040937  0.99861223  0.66458037     0.08440
H1099       H  0.17857347  0.97684134  0.61272583     0.08440
H1100       H  0.09827453  0.82490000  0.75467796     0.08420
H1101       H  0.10656271  0.79598446  0.70606491     0.08420
H1102       H  0.05904606  0.82819985  0.71262601     0.05200
C1103       C  0.39639453  0.89862151  0.82331997    -0.20610
C1104       C  0.37257451  0.93180505  0.84205383    -0.07170
C1105       C  0.32693230  0.93413367  0.83359979     0.13690
C1106       C  0.30781696  0.90501096  0.80655316    -0.20660
C1107       C  0.33043178  0.87015305  0.79041790    -0.07180
C1108       C  0.37584165  0.86774153  0.79750831     0.13680
C1109       C  0.40265827  0.83309424  0.77802467    -0.24010
H1110       H  0.43105764  0.89700553  0.82854697     0.14970
H1111       H  0.27339456  0.90829372  0.80022438     0.15000
C1112       C  0.29567780  0.96541243  0.85381218    -0.23960
H1113       H  0.43733112  0.83559377  0.78718186     0.05210
H1114       H  0.40038406  0.83558812  0.74297132     0.08440
H1115       H  0.39074231  0.80132260  0.78849129     0.08440
H1116       H  0.28937050  0.99281354  0.83189250     0.08420
H1117       H  0.30707598  0.97695134  0.88490759     0.08420
H1118       H  0.26394426  0.94991093  0.86018319     0.05200
C1119       C  0.39053500  0.65896410  0.59684729    -0.20610
C1120       C  0.36606765  0.64902413  0.56025380    -0.07170
C1121       C  0.32744249  0.67433073  0.55304960     0.13690
C1122       C  0.30989841  0.69762008  0.58592360    -0.20660
C1123       C  0.33099376  0.70199840  0.62436258    -0.07180
C1124       C  0.37411649  0.68698319  0.62806238     0.13680
C1125       C  0.40247781  0.70042313  0.66427475    -0.24010
H1126       H  0.42159254  0.64372428  0.60216151     0.14970
H1127       H  0.27856639  0.71295490  0.58135602     0.15000
C1128       C  0.30221123  0.68043706  0.51227660    -0.23960
H1129       H  0.43436226  0.68394546  0.66385093     0.05210
H1130       H  0.38662097  0.69349291  0.69487145     0.08440
H1131       H  0.40813721  0.73542993  0.66194548     0.08440
H1132       H  0.26889734  0.66751601  0.51606710     0.08420
H1133       H  0.31655108  0.66596348  0.48480827     0.08420
H1134       H  0.29980743  0.71512863  0.50439551     0.05200
C1135       C  0.17266993  0.83018090  0.61299713    -0.20610
C1136       C  0.16151342  0.78958252  0.62868425    -0.07170
C1137       C  0.12124401  0.77169668  0.61599781     0.13690
C1138       C  0.09439350  0.79437616  0.58691903    -0.20660
C1139       C  0.10607459  0.83496215  0.57114046    -0.07180
C1140       C  0.14547995  0.85336982  0.58544849     0.13680
C1141       C  0.16102002  0.89655190  0.56986508    -0.24010
H1142       H  0.20332762  0.84408439  0.62235385     0.14970
H1143       H  0.06512352  0.77960724  0.57501381     0.15000
C1144       C  0.10743706  0.72782904  0.63092967    -0.23960
H1145       H  0.19176353  0.90592205  0.58540176     0.05210
H1146       H  0.13634148  0.92122491  0.57572988     0.08440
H1147       H  0.16796850  0.89662869  0.53584266     0.08440
H1148       H  0.10258797  0.72750868  0.66573267     0.08420
H1149       H  0.13253760  0.70395631  0.62257128     0.08420
H1150       H  0.07640705  0.71797690  0.61607079     0.05200
C1151       C  0.39725361  0.58388223  0.68556746    -0.20610
C1152       C  0.37921866  0.56877249  0.64766565    -0.07170
C1153       C  0.33579709  0.57988495  0.63736426     0.13690
C1154       C  0.31255037  0.60641895  0.66378643    -0.20660
C1155       C  0.33009825  0.62195057  0.70151892    -0.07180
C1156       C  0.37287228  0.60974526  0.71317219     0.13680
C1157       C  0.39189622  0.62134396  0.75549936    -0.24010
H1158       H  0.42918474  0.57283742  0.69503189     0.14970
H1159       H  0.27972036  0.61476518  0.65447014     0.15000
C1160       C  0.31112600  0.56149332  0.60046217    -0.23960
H1161       H  0.42463558  0.60722610  0.76014213     0.05210
H1162       H  0.37068716  0.60902156  0.78124641     0.08440
H1163       H  0.39507288  0.65649173  0.75827005     0.08440
H1164       H  0.28549308  0.53967748  0.61257580     0.08420
H1165       H  0.33192799  0.54343851  0.57849731     0.08420
H1166       H  0.29512172  0.58772382  0.58230148     0.05200
C1167       C  0.09093190  0.58382561  0.80426421    -0.20610
C1168       C  0.10366801  0.56634548  0.84359274    -0.07170
C1169       C  0.14405080  0.57888779  0.86117911     0.13690
C1170       C  0.17111070  0.60642853  0.83821429    -0.20660
C1171       C  0.15909868  0.62361001  0.79867723    -0.07180
C1172       C  0.11792803  0.61263833  0.78167354     0.13680
C1173       C  0.10337622  0.62862185  0.73865272    -0.24010
H1174       H  0.06099218  0.57288437  0.79005340     0.14970
H1175       H  0.20245013  0.61445545  0.85145592     0.15000
C1176       C  0.16090836  0.56116419  0.90308591    -0.23960
H1177       H  0.07155469  0.61492394  0.72951436     0.05210
H1178       H  0.12742258  0.61934893  0.71437247     0.08440
H1179       H  0.09976605  0.66390985  0.73854207     0.08440
H1180       H  0.16781100  0.52683270  0.90272591     0.08420
H1181       H  0.13723808  0.56632749  0.92848077     0.08420
H1182       H  0.19229729  0.57573512  0.91171463     0.05200
loop_ 
_geom_bond_atom_site_label_1 
_geom_bond_atom_site_label_2 
_geom_bond_distance 
_geom_bond_site_symmetry_2 
_ccdc_geom_bond_type 
O1            C9   1.264       .  A
O1          Co21   1.981       .  S
O2           C10   1.265       .  A
O2          Co22   1.987       .  S
O3           C11   1.278       .  A
O3          Co23   2.025       .  S
O4           C12   1.273       .  A
O4          Co24   2.020       .  S
O5           C11   1.261       .  A
O5          Co22   1.977       .  S
O6           C12   1.267       .  A
O6          Co21   1.989       .  S
O7           C10   1.274       .  A
O7          Co24   2.016       .  S
O8            C9   1.269       .  A
O8          Co23   2.011       .  S
C9         C1155   1.488       .  S
C10        C1107   1.497       .  S
C11        C1123   1.487       .  S
C12        C1056   1.496       .  S
O13          C26   1.275       .  A
O13         Co21   2.017       .  S
O14          C27   1.277       .  A
O14         Co22   2.046       .  S
O15          C28   1.263       .  A
O15         Co23   1.967       .  S
O16          C29   1.258       .  A
O16         Co24   1.961       .  S
O17          C29   1.274       .  A
O17         Co22   2.015       .  S
O18          C28   1.278       .  A
O18         Co21   2.041       .  S
O19          C26   1.257       .  A
O19         Co24   1.960       .  S
O20          C27   1.261       .  A
O20         Co23   1.969       .  S
Co21         O25   2.106       .  S
Co22         O25   2.108       .  S
Co23         O25   2.093       .  S
Co24         O25   2.092       .  S
C26        C1075   1.483       .  S
C27        C1136   1.498       .  S
C28        C1171   1.495       .  S
C29        C1088   1.481       .  S
O30          C38   1.268       .  A
O30         Co50   1.993       .  S
O31          C39   1.279       .  A
O31         Co51   2.022       .  S
O32          C40   1.275       .  A
O32         Co52   2.048       .  S
O33          C41   1.276       .  A
O33         Co53   2.054       .  S
O34          C40   1.259       .  A
O34         Co51   1.966       .  S
O35          C41   1.251       .  A
O35         Co50   1.954       .  S
O36          C39   1.263       .  A
O36         Co53   1.996       .  S
O37          C38   1.272       .  A
O37         Co52   1.999       .  S
C38        C1024   1.486       .  S
C39         C976   1.502       .  S
C40        C1008   1.503       .  S
C41         C928   1.496       .  S
O42          C55   1.289       .  A
O42         Co50   2.099       .  S
O43          C56   1.292       .  A
O43         Co51   2.104       .  S
O44          C57   1.267       .  A
O44         Co52   1.993       .  S
O45          C58   1.270       .  A
O45         Co53   1.980       .  S
O46          C58   1.253       .  A
O46         Co51   1.971       .  S
O47          C57   1.253       .  A
O47         Co50   1.979       .  S
O48          C55   1.261       .  A
O48         Co53   1.979       .  S
O49          C56   1.260       .  A
O49         Co52   1.973       .  S
Co50         O54   2.103       .  S
Co51         O54   2.103       .  S
Co52         O54   2.096       .  S
Co53         O54   2.094       .  S
C55         C944   1.516       .  S
C56         C992   1.515       .  S
C57        C1043   1.474       .  S
C58         C960   1.466       .  S
O59          C67   1.268       .  A
O59         Co79   1.983       .  S
O60          C68   1.272       .  A
O60         Co80   1.997       .  S
O61          C69   1.284       .  A
O61         Co81   2.070       .  S
O62          C70   1.285       .  A
O62         Co82   2.076       .  S
O63          C69   1.265       .  A
O63         Co80   1.989       .  S
O64          C70   1.260       .  A
O64         Co79   1.978       .  S
O65          C68   1.256       .  A
O65         Co82   1.982       .  S
O66          C67   1.259       .  A
O66         Co81   1.989       .  S
C67         C896   1.473       .  S
C68         C832   1.479       .  S
C69         C819   1.513       .  S
C70         C880   1.505       .  S
O71          C84   1.279       .  A
O71         Co79   2.055       .  S
O72          C85   1.282       .  A
O72         Co80   2.060       .  S
O73          C86   1.265       .  A
O73         Co81   1.991       .  S
O74          C87   1.271       .  A
O74         Co82   1.996       .  S
O75          C87   1.270       .  A
O75         Co80   2.003       .  S
O76          C86   1.272       .  A
O76         Co79   1.994       .  S
O77          C84   1.257       .  A
O77         Co82   1.961       .  S
O78          C85   1.252       .  A
O78         Co81   1.951       .  S
Co79         O83   2.095       .  S
Co80         O83   2.102       .  S
Co81         O83   2.103       .  S
Co82         O83   2.097       .  S
C84         C864   1.504       .  S
C85         C803   1.492       .  S
C86         C912   1.492       .  S
C87         C848   1.488       .  S
C88          C98   1.550       .  S
C88          C89   1.439       .  A
C88          C93   1.442   1_564  A
C89         C132   1.512       .  S
C89          C90   1.442   1_554  A
C90         C141   1.523       .  S
C90          C91   1.447       .  A
C91         C116   1.510       .  S
C91          C92   1.448   1_565  A
C92         C125   1.567       .  S
C92          C93   1.449       .  A
C93         C107   1.482   1_556  S
C94         C784   1.513       .  S
C94          C95   1.388   1_545  A
C94          C99   1.408       .  A
C95          C96   1.408       .  A
C95         H100   1.083       .  S
C96         C816   1.543       .  S
C96          C97   1.439       .  A
C97          C98   1.446       .  A
C97         H101   1.079       .  S
C98          C99   1.425   1_565  A
C99         H102   1.077       .  S
C103        C768   1.478       .  S
C103        C104   1.383   1_554  A
C103        C108   1.401       .  A
C104        C105   1.385       .  A
C104        H109   1.087       .  S
C105        C963   1.446       .  S
C105        C106   1.386       .  A
C106        C107   1.400   1_556  A
C106        H110   1.078       .  S
C107        C108   1.419       .  A
C108        H111   1.072       .  S
C112        C752   1.459       .  S
C112        C113   1.387       .  A
C112        C117   1.392       .  A
C113        C114   1.372   1_545  A
C113        H118   1.085       .  S
C114       C1104   1.505       .  S
C114        C115   1.416       .  A
C115        C116   1.436       .  A
C115        H119   1.070       .  S
C116        C117   1.407   1_565  A
C117        H120   1.081       .  S
C121        C736   1.539       .  S
C121        C122   1.389       .  A
C121        C126   1.431       .  A
C122        C123   1.387       .  A
C122        H127   1.061       .  S
C123        C995   1.541       .  S
C123        C124   1.430       .  A
C124        C125   1.445       .  A
C124        H128   1.080       .  S
C125        C126   1.446       .  A
C126        H129   1.081       .  S
C130        C899   1.461       .  S
C130        C131   1.400       .  A
C130        C135   1.382       .  A
C131        C132   1.410       .  A
C131        H136   1.078       .  S
C132        C133   1.428       .  A
C133        C134   1.409       .  A
C133        H137   1.073       .  S
C134        C720   1.489       .  S
C134        C135   1.375       .  A
C135        H138   1.088       .  S
C139        C707   1.505       .  S
C139        C140   1.415       .  A
C139        C144   1.393   1_554  A
C140        C141   1.427   1_554  A
C140        H145   1.073       .  S
C141        C142   1.419       .  A
C142        C143   1.405       .  A
C142        H146   1.077       .  S
C143       C1059   1.484       .  S
C143        C144   1.377       .  A
C144        H147   1.087       .  S
C148        C203   1.516       .  S
C148        C149   1.458       .  A
C148        C153   1.446   1_556  A
C149        C192   1.529       .  S
C149        C150   1.446   1_655  A
C150        C167   1.538       .  S
C150        C151   1.446       .  A
C151        C156   1.522       .  S
C151        C152   1.450   1_556  A
C152        C174   1.518       .  S
C152        C153   1.442   1_455  A
C153        C183   1.548       .  S
C154       C1072   1.492       .  S
C154        C155   1.399       .  A
C154        C159   1.363   1_556  A
C155        C156   1.422       .  A
C155        H160   1.070       .  S
C156        C157   1.420   1_556  A
C157        C158   1.419       .  A
C157        H161   1.068       .  S
C158        C688   1.512       .  S
C158        C159   1.403       .  A
C159        H162   1.080       .  S
C163       C1168   1.484       .  S
C163        C164   1.376       .  A
C163        C168   1.397       .  A
C164        C165   1.398       .  A
C164        H169   1.077       .  S
C165        C675   1.528       .  S
C165        C166   1.441       .  A
C166        C167   1.444       .  A
C166        H170   1.081       .  S
C167        C168   1.412       .  A
C168        H171   1.079       .  S
C172        C835   1.463       .  S
C172        C173   1.396       .  A
C172        C177   1.384       .  A
C173        C174   1.412   1_655  A
C173        H178   1.081       .  S
C174        C175   1.437       .  A
C175        C176   1.417       .  A
C175        H179   1.076       .  S
C176        C656   1.501       .  S
C176        C177   1.377   1_455  A
C177        H180   1.089       .  S
C181        C883   1.539       .  S
C181        C182   1.438       .  A
C181        C186   1.405       .  A
C182        C183   1.447       .  A
C182        H187   1.081       .  S
C183        C184   1.419       .  A
C184        C185   1.404       .  A
C184        H188   1.078       .  S
C185        C640   1.501       .  S
C185        C186   1.390       .  A
C186        H189   1.081       .  S
C190        C931   1.499       .  S
C190        C191   1.408       .  A
C190        C195   1.377   1_655  A
C191        C192   1.427       .  A
C191        H196   1.068       .  S
C192        C193   1.424   1_655  A
C193        C194   1.414       .  A
C193        H197   1.081       .  S
C194        C624   1.483       .  S
C194        C195   1.384       .  A
C195        H198   1.087       .  S
C199        C608   1.485       .  S
C199        C200   1.377   1_554  A
C199        C204   1.401       .  A
C200        C201   1.389       .  A
C200        H205   1.087       .  S
C201        C979   1.493       .  S
C201        C202   1.410       .  A
C202        C203   1.424       .  A
C202        H206   1.074       .  S
C203        C204   1.422   1_556  A
C204        H207   1.071       .  S
C208        C216   1.540       .  S
C208        C209   1.445       .  A
C208        C213   1.446       .  A
C209        C261   1.526       .  S
C209        C210   1.456       .  A
C210        C234   1.547       .  S
C210        C211   1.465       .  A
C211        C245   1.539       .  S
C211        C212   1.463       .  A
C212        C227   1.544       .  S
C212        C213   1.449       .  A
C213        C252   1.522       .  S
C214       C1011   1.494       .  S
C214        C215   1.404       .  A
C214        C219   1.380       .  A
C215        C216   1.420       .  A
C215        H220   1.079       .  S
C216        C217   1.440       .  A
C217        C218   1.432       .  A
C217        H221   1.081       .  S
C218        C592   1.522       .  S
C218        C219   1.399       .  A
C219        H222   1.081       .  S
C223        C576   1.498       .  S
C223        C224   1.379       .  A
C223        C228   1.403       .  A
C224        C225   1.399       .  A
C224        H229   1.077       .  S
C225       C1120   1.531       .  S
C225        C226   1.442       .  A
C226        C227   1.442       .  A
C226        H230   1.080       .  S
C227        C228   1.417       .  A
C228        H231   1.079       .  S
C232        C867   1.502       .  S
C232        C233   1.403       .  A
C232        C237   1.362       .  A
C233        C234   1.422       .  A
C233        H238   1.075       .  S
C234        C235   1.439       .  A
C235        C236   1.437       .  A
C235        H239   1.069       .  S
C236        C560   1.540       .  S
C236        C237   1.405       .  A
C237        H240   1.078       .  S
C241        C544   1.485       .  S
C241        C242   1.361       .  A
C241        C246   1.405       .  A
C242        C243   1.362       .  A
C242        H247   1.073       .  S
C243        C915   1.503       .  S
C243        C244   1.417       .  A
C244        C245   1.439       .  A
C244        H248   1.070       .  S
C245        C246   1.427       .  A
C246        H249   1.066       .  S
C250       C1152   1.478       .  S
C250        C251   1.412       .  A
C250        C255   1.377       .  A
C251        C252   1.426       .  A
C251        H256   1.078       .  S
C252        C253   1.418       .  A
C253        C254   1.405       .  A
C253        H257   1.078       .  S
C254        C528   1.466       .  S
C254        C255   1.379       .  A
C255        H258   1.088       .  S
C259       C1027   1.517       .  S
C259        C260   1.413       .  A
C259        C264   1.387       .  A
C260        C261   1.429       .  A
C260        H265   1.066       .  S
C261        C262   1.426       .  A
C262        C263   1.409       .  A
C262        H266   1.078       .  S
C263        C515   1.498       .  S
C263        C264   1.384       .  A
C264        H267   1.085       .  S
C268        C294   1.538       .  S
C268        C269   1.448       .  A
C268        C273   1.442       .  A
C269        C287   1.503       .  S
C269        C270   1.447   1_565  A
C270        C278   1.549   1_455  S
C270        C271   1.442   1_455  A
C271        C305   1.498       .  S
C271        C272   1.433   1_545  A
C272        C314   1.529   1_565  S
C272        C273   1.432   1_655  A
C273        C321   1.498       .  S
C274        C499   1.558       .  S
C274        C275   1.396   1_455  A
C274        C279   1.431       .  A
C275        C276   1.400       .  A
C275        H280   1.079       .  S
C276        C947   1.524       .  S
C276        C277   1.422       .  A
C277        C278   1.434       .  A
C277        H281   1.081       .  S
C278        C279   1.439   1_655  A
C279        H282   1.072       .  S
C283        C483   1.468       .  S
C283        C284   1.389       .  A
C283        C288   1.400       .  A
C284        C285   1.373   1_545  A
C284        H289   1.085       .  S
C285       C1091   1.485       .  S
C285        C286   1.406       .  A
C286        C287   1.422       .  A
C286        H290   1.067       .  S
C287        C288   1.410   1_565  A
C288        H291   1.078       .  S
C292       C1139   1.492       .  S
C292        C293   1.402       .  A
C292        C297   1.383       .  A
C293        C294   1.414       .  A
C293        H298   1.078       .  S
C294        C295   1.443       .  A
C295        C296   1.438       .  A
C295        H299   1.081       .  S
C296        C464   1.525       .  S
C296        C297   1.399       .  A
C297        H300   1.081       .  S
C301        C448   1.488       .  S
C301        C302   1.382       .  A
C301        C306   1.403       .  A
C302        C303   1.382       .  A
C302        H307   1.088       .  S
C303       C1040   1.462       .  S
C303        C304   1.397       .  A
C304        C305   1.407       .  A
C304        H308   1.076       .  S
C305        C306   1.421       .  A
C306        H309   1.066       .  S
C310        C432   1.498       .  S
C310        C311   1.383   1_545  A
C310        C315   1.402       .  A
C311        C312   1.402       .  A
C311        H316   1.078       .  S
C312        C800   1.515       .  S
C312        C313   1.428       .  A
C313        C314   1.432   1_565  A
C313        H317   1.080       .  S
C314        C315   1.418       .  A
C315        H318   1.078       .  S
C319        C851   1.475       .  S
C319        C320   1.409       .  A
C319        C324   1.377   1_655  A
C320        C321   1.425   1_655  A
C320        H325   1.079       .  S
C321        C322   1.408       .  A
C322        C323   1.393       .  A
C322        H326   1.079       .  S
C323        C416   1.455       .  S
C323        C324   1.381       .  A
C324        H327   1.088       .  S
O328        C336   1.271       .  A
O328       Co348   2.006       .  S
O329        C337   1.261       .  A
O329       Co349   1.971       .  S
O330        C338   1.288       .  A
O330       Co350   2.071       .  S
O331        C339   1.284       .  A
O331       Co351   2.077       .  S
O332        C338   1.268       .  A
O332       Co349   1.987       .  S
O333        C339   1.253       .  A
O333       Co348   1.955       .  S
O334        C337   1.264       .  A
O334       Co351   2.005       .  S
O335        C336   1.261       .  A
O335       Co350   1.986       .  S
C336        C480   1.481       .  S
C337        C531   1.477       .  S
C338        C496   1.509       .  S
C339        C595   1.493       .  S
O340        C353   1.287       .  A
O340       Co348   2.108       .  S
O341        C354   1.263       .  A
O341       Co349   1.997       .  S
O342        C355   1.278       .  A
O342       Co350   2.004       .  S
O343        C356   1.258       .  A
O343       Co351   1.968       .  S
O344        C356   1.282       .  A
O344       Co349   2.052       .  S
O345        C355   1.257       .  A
O345       Co348   1.975       .  S
O346        C353   1.249       .  A
O346       Co351   1.958       .  S
O347        C354   1.266       .  A
O347       Co350   1.999       .  S
Co348       O352   2.101       .  S
Co349       O352   2.104       .  S
Co350       O352   2.110       .  S
Co351       O352   2.106       .  S
C353        C739   1.516       .  S
C354        C627   1.485       .  S
C355        C755   1.478       .  S
C356        C672   1.488       .  S
O357        C365   1.276       .  A
O357       Co377   2.042       .  S
O358        C366   1.273       .  A
O358       Co378   2.031       .  S
O359        C367   1.267       .  A
O359       Co379   1.987       .  S
O360        C368   1.267       .  A
O360       Co380   1.972       .  S
O361        C367   1.272       .  A
O361       Co378   2.006       .  S
O362        C368   1.270       .  A
O362       Co377   2.002       .  S
O363        C366   1.269       .  A
O363       Co380   1.992       .  S
O364        C365   1.266       .  A
O364       Co379   1.980       .  S
C365        C435   1.507       .  S
C366        C643   1.507       .  S
C367        C611   1.493       .  S
C368        C451   1.477       .  S
O369        C382   1.274       .  A
O369       Co377   2.014       .  S
O370        C383   1.268       .  A
O370       Co378   1.982       .  S
O371        C384   1.274       .  A
O371       Co379   2.032       .  S
O372        C385   1.273       .  A
O372       Co380   2.002       .  S
O373        C385   1.266       .  A
O373       Co378   1.992       .  S
O374        C384   1.271       .  A
O374       Co377   1.999       .  S
O375        C382   1.265       .  A
O375       Co380   2.006       .  S
O376        C383   1.272       .  A
O376       Co379   2.006       .  S
Co377       O381   2.099       .  S
Co378       O381   2.099       .  S
Co379       O381   2.092       .  S
Co380       O381   2.091       .  S
C382        C512   1.503       .  S
C383        C771   1.490       .  S
C384        C787   1.514       .  S
C385        C563   1.492       .  S
O386        C394   1.259       .  A
O386       Co406   1.970       .  S
O387        C395   1.271       .  A
O387       Co407   2.000       .  S
O388        C396   1.280       .  A
O388       Co408   2.056       .  S
O389        C397   1.272       .  A
O389       Co409   1.992       .  S
O390        C396   1.261       .  A
O390       Co407   1.965       .  S
O391        C397   1.264       .  A
O391       Co406   1.971       .  S
O392        C395   1.271       .  A
O392       Co409   2.019       .  S
O393        C394   1.269       .  A
O393       Co408   1.976       .  S
C394        C547   1.472       .  S
C395        C659   1.505       .  S
C396        C579   1.504       .  S
C397        C691   1.475       .  S
O398        C411   1.261       .  A
O398       Co406   1.997       .  S
O399        C412   1.282       .  A
O399       Co407   2.067       .  S
O400        C413   1.265       .  A
O400       Co408   1.979       .  S
O401        C414   1.272       .  A
O401       Co409   1.981       .  S
O402        C414   1.261       .  A
O402       Co407   1.989       .  S
O403        C413   1.276       .  A
O403       Co406   2.025       .  S
O404        C411   1.276       .  A
O404       Co409   2.023       .  S
O405        C412   1.256       .  A
O405       Co408   1.965       .  S
Co406       O410   2.099       .  S
Co407       O410   2.094       .  S
Co408       O410   2.089       .  S
Co409       O410   2.090       .  S
C411        C704   1.505       .  S
C412        C467   1.497       .  S
C413        C723   1.494       .  S
C414        C419   1.474       .  S
C415        C416   1.395       .  A
C415        C420   1.382       .  A
C415        H422   1.086       .  S
C416        C417   1.405       .  A
C417        C418   1.405       .  A
C417        C424   1.503       .  S
C418        C419   1.409       .  A
C418        H423   1.084       .  S
C419        C420   1.425       .  A
C420        C421   1.516       .  S
C421        H425   1.111       .  S
C421        H426   1.099       .  S
C421        H427   1.110       .  S
C424        H428   1.110       .  S
C424        H429   1.111       .  S
C424        H430   1.111       .  S
C431        C432   1.405       .  A
C431        C436   1.402       .  A
C431        H438   1.085       .  S
C432        C433   1.408       .  A
C433        C434   1.418       .  A
C433        C440   1.502       .  S
C434        C435   1.416       .  A
C434        H439   1.083       .  S
C435        C436   1.421       .  A
C436        C437   1.511       .  S
C437        H441   1.110       .  S
C437        H442   1.111       .  S
C437        H443   1.099       .  S
C440        H444   1.110       .  S
C440        H445   1.111       .  S
C440        H446   1.111       .  S
C447        C448   1.407       .  A
C447        C452   1.378       .  A
C447        H454   1.086       .  S
C448        C449   1.413       .  A
C449        C450   1.415       .  A
C449        C456   1.502       .  S
C450        C451   1.412       .  A
C450        H455   1.083       .  S
C451        C452   1.413       .  A
C452        C453   1.519       .  S
C453        H457   1.112       .  S
C453        H458   1.106       .  S
C453        H459   1.110       .  S
C456        H460   1.107       .  S
C456        H461   1.111       .  S
C456        H462   1.111       .  S
C463        C464   1.410       .  A
C463        C468   1.423       .  A
C463        H470   1.083       .  S
C464        C465   1.433       .  A
C465        C466   1.399       .  A
C465        C472   1.514       .  S
C466        C467   1.392       .  A
C466        H471   1.084       .  S
C467        C468   1.423       .  A
C468        C469   1.505       .  S
C469        H473   1.111       .  S
C469        H474   1.104       .  S
C469        H475   1.110       .  S
C472        H476   1.099       .  S
C472        H477   1.108       .  S
C472        H478   1.111       .  S
C479        C480   1.407       .  A
C479        C484   1.380       .  A
C479        H486   1.083       .  S
C480        C481   1.413       .  A
C481        C482   1.412       .  A
C481        C488   1.503       .  S
C482        C483   1.408       .  A
C482        H487   1.084       .  S
C483        C484   1.409       .  A
C484        C485   1.514       .  S
C485        H489   1.106       .  S
C485        H490   1.109       .  S
C485        H491   1.110       .  S
C488        H492   1.110       .  S
C488        H493   1.110       .  S
C488        H494   1.111       .  S
C495        C496   1.412       .  A
C495        C500   1.431       .  A
C495        H502   1.083       .  S
C496        C497   1.403       .  A
C497        C498   1.402       .  A
C497        C504   1.513       .  S
C498        C499   1.429       .  A
C498        H503   1.071       .  S
C499        C500   1.432       .  A
C500        C501   1.502       .  S
C501        H505   1.111       .  S
C501        H506   1.110       .  S
C501        H507   1.104       .  S
C504        H508   1.110       .  S
C504        H509   1.108       .  S
C504        H510   1.110       .  S
C511        C512   1.416       .  A
C511        C516   1.424       .  A
C511        H518   1.083       .  S
C512        C513   1.426       .  A
C513        C514   1.387       .  A
C513        C520   1.517       .  S
C514        C515   1.399       .  A
C514        H519   1.086       .  S
C515        C516   1.413       .  A
C516        C517   1.502       .  S
C517        H521   1.110       .  S
C517        H522   1.109       .  S
C517        H523   1.111       .  S
C520        H524   1.105       .  S
C520        H525   1.110       .  S
C520        H526   1.111       .  S
C527        C528   1.405       .  A
C527        C532   1.411       .  A
C527        H534   1.084       .  S
C528        C529   1.415       .  A
C529        C530   1.384       .  A
C529        C536   1.509       .  S
C530        C531   1.400       .  A
C530        H535   1.085       .  S
C531        C532   1.417       .  A
C532        C533   1.507       .  S
C533        H537   1.111       .  S
C533        H538   1.110       .  S
C533        H539   1.108       .  S
C536        H540   1.110       .  S
C536        H541   1.108       .  S
C536        H542   1.109       .  S
C543        C544   1.408       .  A
C543        C548   1.415       .  A
C543        H550   1.083       .  S
C544        C545   1.433       .  A
C545        C546   1.365       .  A
C545        C552   1.526       .  S
C546        C547   1.393       .  A
C546        H551   1.086       .  S
C547        C548   1.417       .  A
C548        C549   1.502       .  S
C549        H553   1.111       .  S
C549        H554   1.110       .  S
C549        H555   1.107       .  S
C552        H556   1.111       .  S
C552        H557   1.108       .  S
C552        H558   1.111       .  S
C559        C560   1.417       .  A
C559        C564   1.372       .  A
C559        H566   1.080       .  S
C560        C561   1.433       .  A
C561        C562   1.433       .  A
C561        C568   1.500       .  S
C562        C563   1.413       .  A
C562        H567   1.083       .  S
C563        C564   1.400       .  A
C564        C565   1.513       .  S
C565        H569   1.111       .  S
C565        H570   1.108       .  S
C565        H571   1.110       .  S
C568        H572   1.110       .  S
C568        H573   1.106       .  S
C568        H574   1.111       .  S
C575        C576   1.404       .  A
C575        C580   1.418       .  A
C575        H582   1.083       .  S
C576        C577   1.425       .  A
C577        C578   1.403       .  A
C577        C584   1.514       .  S
C578        C579   1.399       .  A
C578        H583   1.083       .  S
C579        C580   1.425       .  A
C580        C581   1.507       .  S
C581        H585   1.111       .  S
C581        H586   1.108       .  S
C581        H587   1.110       .  S
C584        H588   1.105       .  S
C584        H589   1.091       .  S
C584        H590   1.099       .  S
C591        C592   1.407       .  A
C591        C596   1.422       .  A
C591        H598   1.083       .  S
C592        C593   1.427       .  A
C593        C594   1.396       .  A
C593        C600   1.500       .  S
C594        C595   1.391       .  A
C594        H599   1.085       .  S
C595        C596   1.425       .  A
C596        C597   1.503       .  S
C597        H601   1.111       .  S
C597        H602   1.099       .  S
C597        H603   1.110       .  S
C600        H604   1.110       .  S
C600        H605   1.101       .  S
C600        H606   1.111       .  S
C607        C608   1.406       .  A
C607        C612   1.419       .  A
C607        H614   1.083       .  S
C608        C609   1.419       .  A
C609        C610   1.380       .  A
C609        C616   1.518       .  S
C610        C611   1.402       .  A
C610        H615   1.083       .  S
C611        C612   1.422       .  A
C612        C613   1.504       .  S
C613        H617   1.111       .  S
C613        H618   1.110       .  S
C613        H619   1.110       .  S
C616        H620   1.105       .  S
C616        H621   1.110       .  S
C616        H622   1.110       .  S
C623        C624   1.412       .  A
C623        C628   1.418       .  A
C623        H630   1.084       .  S
C624        C625   1.420       .  A
C625        C626   1.379       .  A
C625        C632   1.512       .  S
C626        C627   1.399       .  A
C626        H631   1.084       .  S
C627        C628   1.415       .  A
C628        C629   1.506       .  S
C629        H633   1.111       .  S
C629        H634   1.108       .  S
C629        H635   1.110       .  S
C632        H636   1.103       .  S
C632        H637   1.111       .  S
C632        H638   1.109       .  S
C639        C640   1.400       .  A
C639        C644   1.398       .  A
C639        H646   1.081       .  S
C640        C641   1.414       .  A
C641        C642   1.422       .  A
C641        C648   1.502       .  S
C642        C643   1.417       .  A
C642        H647   1.083       .  S
C643        C644   1.421       .  A
C644        C645   1.515       .  S
C645        H649   1.105       .  S
C645        H650   1.110       .  S
C645        H651   1.105       .  S
C648        H652   1.110       .  S
C648        H653   1.109       .  S
C648        H654   1.110       .  S
C655        C656   1.405       .  A
C655        C660   1.390       .  A
C655        H662   1.086       .  S
C656        C657   1.411       .  A
C657        C658   1.424       .  A
C657        C664   1.502       .  S
C658        C659   1.418       .  A
C658        H663   1.083       .  S
C659        C660   1.422       .  A
C660        C661   1.515       .  S
C661        H665   1.111       .  S
C661        H666   1.106       .  S
C661        H667   1.110       .  S
C664        H668   1.108       .  S
C664        H669   1.110       .  S
C664        H670   1.110       .  S
C671        C672   1.386       .  A
C671        C676   1.392       .  A
C671        H678   1.086       .  S
C672        C673   1.418       .  A
C673        C674   1.422       .  A
C673        C680   1.502       .  S
C674        C675   1.413       .  A
C674        H679   1.082       .  S
C675        C676   1.440       .  A
C676        C677   1.509       .  S
C677        H681   1.111       .  S
C677        H682   1.088       .  S
C677        H683   1.112       .  S
C680        H684   1.110       .  S
C680        H685   1.102       .  S
C680        H686   1.111       .  S
C687        C688   1.409       .  A
C687        C692   1.367       .  A
C687        H694   1.082       .  S
C688        C689   1.430       .  A
C689        C690   1.422       .  A
C689        C696   1.501       .  S
C690        C691   1.409       .  A
C690        H695   1.083       .  S
C691        C692   1.401       .  A
C692        C693   1.513       .  S
C693        H697   1.111       .  S
C693        H698   1.109       .  S
C693        H699   1.109       .  S
C696        H700   1.110       .  S
C696        H701   1.107       .  S
C696        H702   1.111       .  S
C703        C704   1.416       .  A
C703        C708   1.426       .  A
C703        H710   1.083       .  S
C704        C705   1.428       .  A
C705        C706   1.384       .  A
C705        C712   1.520       .  S
C706        C707   1.398       .  A
C706        H711   1.084       .  S
C707        C708   1.416       .  A
C708        C709   1.501       .  S
C709        H713   1.110       .  S
C709        H714   1.110       .  S
C709        H715   1.109       .  S
C712        H716   1.110       .  S
C712        H717   1.108       .  S
C712        H718   1.111       .  S
C719        C720   1.405       .  A
C719        C724   1.419       .  A
C719        H726   1.083       .  S
C720        C721   1.423       .  A
C721        C722   1.384       .  A
C721        C728   1.517       .  S
C722        C723   1.400       .  A
C722        H727   1.084       .  S
C723        C724   1.424       .  A
C724        C725   1.504       .  S
C725        H729   1.111       .  S
C725        H730   1.110       .  S
C725        H731   1.109       .  S
C728        H732   1.110       .  S
C728        H733   1.109       .  S
C728        H734   1.109       .  S
C735        C736   1.407       .  A
C735        C740   1.429       .  A
C735        H742   1.083       .  S
C736        C737   1.432       .  A
C737        C738   1.408       .  A
C737        C744   1.509       .  S
C738        C739   1.397       .  A
C738        H743   1.084       .  S
C739        C740   1.431       .  A
C740        C741   1.506       .  S
C741        H745   1.111       .  S
C741        H746   1.110       .  S
C741        H747   1.102       .  S
C744        H748   1.110       .  S
C744        H749   1.110       .  S
C744        H750   1.110       .  S
C751        C752   1.394       .  A
C751        C756   1.382       .  A
C751        H758   1.086       .  S
C752        C753   1.412       .  A
C753        C754   1.406       .  A
C753        C760   1.504       .  S
C754        C755   1.406       .  A
C754        H759   1.084       .  S
C755        C756   1.428       .  A
C756        C757   1.518       .  S
C757        H761   1.111       .  S
C757        H762   1.098       .  S
C757        H763   1.110       .  S
C760        H764   1.108       .  S
C760        H765   1.110       .  S
C760        H766   1.110       .  S
C767        C768   1.404       .  A
C767        C772   1.416       .  A
C767        H774   1.083       .  S
C768        C769   1.415       .  A
C769        C770   1.382       .  A
C769        C776   1.516       .  S
C770        C771   1.404       .  A
C770        H775   1.083       .  S
C771        C772   1.421       .  A
C772        C773   1.504       .  S
C773        H777   1.110       .  S
C773        H778   1.110       .  S
C773        H779   1.110       .  S
C776        H780   1.110       .  S
C776        H781   1.109       .  S
C776        H782   1.108       .  S
C783        C784   1.404       .  A
C783        C788   1.397       .  A
C783        H790   1.081       .  S
C784        C785   1.413       .  A
C785        C786   1.427       .  A
C785        C792   1.501       .  S
C786        C787   1.419       .  A
C786        H791   1.083       .  S
C787        C788   1.423       .  A
C788        C789   1.514       .  S
C789        H793   1.111       .  S
C789        H794   1.111       .  S
C789        H795   1.108       .  S
C792        H796   1.110       .  S
C792        H797   1.110       .  S
C792        H798   1.111       .  S
C799        C800   1.408       .  A
C799        C804   1.420       .  A
C799        H806   1.082       .  S
C800        C801   1.422       .  A
C801        C802   1.389       .  A
C801        C808   1.504       .  S
C802        C803   1.389       .  A
C802        H807   1.076       .  S
C803        C804   1.429       .  A
C804        C805   1.507       .  S
C805        H809   1.110       .  S
C805        H810   1.103       .  S
C805        H811   1.107       .  S
C808        H812   1.104   1_565  S
C808        H813   1.104   1_565  S
C808        H814   1.112       .  S
C815        C816   1.416       .  A
C815        C820   1.401       .  A
C815        H822   1.077       .  S
C816        C817   1.423       .  A
C817        C818   1.431       .  A
C817        C824   1.502       .  S
C818        C819   1.416       .  A
C818        H823   1.083       .  S
C819        C820   1.408       .  A
C820        C821   1.503       .  S
C821        H825   1.111       .  S
C821        H826   1.110       .  S
C821        H827   1.108       .  S
C824        H828   1.110       .  S
C824        H829   1.100       .  S
C824        H830   1.111       .  S
C831        C832   1.409       .  A
C831        C836   1.409       .  A
C831        H838   1.084       .  S
C832        C833   1.425       .  A
C833        C834   1.382       .  A
C833        C840   1.517       .  S
C834        C835   1.396       .  A
C834        H839   1.086       .  S
C835        C836   1.409       .  A
C836        C837   1.503       .  S
C837        H841   1.111       .  S
C837        H842   1.110       .  S
C837        H843   1.110       .  S
C840        H844   1.099       .  S
C840        H845   1.110       .  S
C840        H846   1.111       .  S
C847        C848   1.403       .  A
C847        C852   1.381       .  A
C847        H854   1.084       .  S
C848        C849   1.416       .  A
C849        C850   1.418       .  A
C849        C856   1.505       .  S
C850        C851   1.409       .  A
C850        H855   1.084       .  S
C851        C852   1.416       .  A
C852        C853   1.512       .  S
C853        H857   1.109       .  S
C853        H858   1.111       .  S
C853        H859   1.107       .  S
C856        H860   1.110       .  S
C856        H861   1.111       .  S
C856        H862   1.110       .  S
C863        C864   1.398       .  A
C863        C868   1.399       .  A
C863        H870   1.084       .  S
C864        C865   1.428       .  A
C865        C866   1.418       .  A
C865        C872   1.508       .  S
C866        C867   1.402       .  A
C866        H871   1.084       .  S
C867        C868   1.433       .  A
C868        C869   1.517       .  S
C869        H873   1.105       .  S
C869        H874   1.110       .  S
C869        H875   1.104       .  S
C872        H876   1.105       .  S
C872        H877   1.110       .  S
C872        H878   1.111       .  S
C879        C880   1.392       .  A
C879        C884   1.397       .  A
C879        H886   1.085       .  S
C880        C881   1.427       .  A
C881        C882   1.431       .  A
C881        C888   1.504       .  S
C882        C883   1.412       .  A
C882        H887   1.083       .  S
C883        C884   1.426       .  A
C884        C885   1.495       .  S
C885        H889   1.111       .  S
C885        H890   1.110       .  S
C885        H891   1.099       .  S
C888        H892   1.104       .  S
C888        H893   1.110       .  S
C888        H894   1.111       .  S
C895        C896   1.408       .  A
C895        C900   1.405       .  A
C895        H902   1.084       .  S
C896        C897   1.424       .  A
C897        C898   1.382       .  A
C897        C904   1.515       .  S
C898        C899   1.395       .  A
C898        H903   1.084       .  S
C899        C900   1.410       .  A
C900        C901   1.505       .  S
C901        H905   1.110       .  S
C901        H906   1.108       .  S
C901        H907   1.110       .  S
C904        H908   1.100       .  S
C904        H909   1.110       .  S
C904        H910   1.111       .  S
C911        C912   1.394       .  A
C911        C916   1.371       .  A
C911        H918   1.085       .  S
C912        C913   1.420       .  A
C913        C914   1.424       .  A
C913        C920   1.502       .  S
C914        C915   1.411       .  A
C914        H919   1.083       .  S
C915        C916   1.436       .  A
C916        C917   1.524       .  S
C917        H921   1.108       .  S
C917        H922   1.112       .  S
C917        H923   1.106       .  S
C920        H924   1.110       .  S
C920        H925   1.105       .  S
C920        H926   1.111       .  S
C927        C928   1.419       .  A
C927        C932   1.421       .  A
C927        H934   1.083       .  S
C928        C929   1.405       .  A
C929        C930   1.383       .  A
C929        C936   1.495       .  S
C930        C931   1.409       .  A
C930        H935   1.085       .  S
C931        C932   1.411       .  A
C932        C933   1.502       .  S
C933        H937   1.110       .  S
C933        H938   1.110       .  S
C933        H939   1.109       .  S
C936        H940   1.108       .  S
C936        H941   1.103       .  S
C936        H942   1.111       .  S
C943        C944   1.413       .  A
C943        C948   1.426       .  A
C943        H950   1.082       .  S
C944        C945   1.410       .  A
C945        C946   1.401       .  A
C945        C952   1.489       .  S
C946        C947   1.408       .  A
C946        H951   1.083       .  S
C947        C948   1.417       .  A
C948        C949   1.499       .  S
C949        H953   1.110       .  S
C949        H954   1.110       .  S
C949        H955   1.097       .  S
C952        H956   1.111       .  S
C952        H957   1.102       .  S
C952        H958   1.108       .  S
C959        C960   1.405       .  A
C959        C964   1.399       .  A
C959        H966   1.084       .  S
C960        C961   1.425       .  A
C961        C962   1.383       .  A
C961        C968   1.515       .  S
C962        C963   1.392       .  A
C962        H967   1.087       .  S
C963        C964   1.407       .  A
C964        C965   1.504       .  S
C965        H969   1.110       .  S
C965        H970   1.110       .  S
C965        H971   1.109       .  S
C968        H972   1.111       .  S
C968        H973   1.110       .  S
C968        H974   1.098       .  S
C975        C976   1.414       .  A
C975        C980   1.423       .  A
C975        H982   1.083       .  S
C976        C977   1.428       .  A
C977        C978   1.385       .  A
C977        C984   1.518       .  S
C978        C979   1.396       .  A
C978        H983   1.086       .  S
C979        C980   1.418       .  A
C980        C981   1.502       .  S
C981        H985   1.110       .  S
C981        H986   1.107       .  S
C981        H987   1.110       .  S
C984        H988   1.101       .  S
C984        H989   1.110       .  S
C984        H990   1.111       .  S
C991        C992   1.397       .  A
C991        C996   1.409       .  A
C991        H998   1.084       .  S
C992        C993   1.427       .  A
C993        C994   1.428       .  A
C993       C1000   1.504       .  S
C994        C995   1.410       .  A
C994        H999   1.082       .  S
C995        C996   1.433       .  A
C996        C997   1.509       .  S
C997       H1001   1.111       .  S
C997       H1002   1.111       .  S
C997       H1003   1.111       .  S
C1000      H1004   1.098       .  S
C1000      H1005   1.110       .  S
C1000      H1006   1.111       .  S
C1007      C1008   1.416       .  A
C1007      C1012   1.415       .  A
C1007      H1014   1.084       .  S
C1008      C1009   1.416       .  A
C1009      C1010   1.403       .  A
C1009      C1016   1.510       .  S
C1010      C1011   1.406       .  A
C1010      H1015   1.085       .  S
C1011      C1012   1.410       .  A
C1012      C1013   1.503       .  S
C1013      H1017   1.110       .  S
C1013      H1018   1.110       .  S
C1013      H1019   1.109       .  S
C1016      H1020   1.110       .  S
C1016      H1021   1.102       .  S
C1016      H1022   1.111       .  S
C1023      C1024   1.413       .  A
C1023      C1028   1.426       .  A
C1023      H1030   1.083       .  S
C1024      C1025   1.407       .  A
C1025      C1026   1.377       .  A
C1025      C1032   1.517       .  S
C1026      C1027   1.412       .  A
C1026      H1031   1.084       .  S
C1027      C1028   1.425       .  A
C1028      C1029   1.501       .  S
C1029      H1033   1.111       .  S
C1029      H1034   1.108       .  S
C1029      H1035   1.110       .  S
C1032      H1036   1.108       .  S
C1032      H1037   1.110       .  S
C1032      H1038   1.112       .  S
C1039      C1040   1.393       .  A
C1039      C1044   1.381       .  A
C1039      H1046   1.083       .  S
C1040      C1041   1.410       .  A
C1041      C1042   1.409       .  A
C1041      C1048   1.505       .  S
C1042      C1043   1.409       .  A
C1042      H1047   1.083       .  S
C1043      C1044   1.425       .  A
C1044      C1045   1.516       .  S
C1045      H1049   1.111       .  S
C1045      H1050   1.099       .  S
C1045      H1051   1.110       .  S
C1048      H1052   1.109       .  S
C1048      H1053   1.111       .  S
C1048      H1054   1.111       .  S
C1055      C1056   1.403       .  A
C1055      C1060   1.390       .  A
C1055      H1062   1.083       .  S
C1056      C1057   1.421       .  A
C1057      C1058   1.419       .  A
C1057      C1064   1.506       .  S
C1058      C1059   1.406       .  A
C1058      H1063   1.083       .  S
C1059      C1060   1.417       .  A
C1060      C1061   1.515       .  S
C1061      H1065   1.107       .  S
C1061      H1066   1.109       .  S
C1061      H1067   1.106       .  S
C1064      H1068   1.108       .  S
C1064      H1069   1.110       .  S
C1064      H1070   1.111       .  S
C1071      C1072   1.402       .  A
C1071      C1076   1.414       .  A
C1071      H1078   1.083       .  S
C1072      C1073   1.433       .  A
C1073      C1074   1.382       .  A
C1073      C1080   1.520       .  S
C1074      C1075   1.393       .  A
C1074      H1079   1.085       .  S
C1075      C1076   1.422       .  A
C1076      C1077   1.504       .  S
C1077      H1081   1.110       .  S
C1077      H1082   1.107       .  S
C1077      H1083   1.110       .  S
C1080      H1084   1.107       .  S
C1080      H1085   1.110       .  S
C1080      H1086   1.111       .  S
C1087      C1088   1.396       .  A
C1087      C1092   1.384       .  A
C1087      H1094   1.084       .  S
C1088      C1089   1.420       .  A
C1089      C1090   1.413       .  A
C1089      C1096   1.505       .  S
C1090      C1091   1.403       .  A
C1090      H1095   1.083       .  S
C1091      C1092   1.428       .  A
C1092      C1093   1.520       .  S
C1093      H1097   1.111       .  S
C1093      H1098   1.109       .  S
C1093      H1099   1.109       .  S
C1096      H1100   1.110       .  S
C1096      H1101   1.108       .  S
C1096      H1102   1.110       .  S
C1103      C1104   1.409       .  A
C1103      C1108   1.421       .  A
C1103      H1110   1.083       .  S
C1104      C1105   1.434       .  A
C1105      C1106   1.388       .  A
C1105      C1112   1.521       .  S
C1106      C1107   1.397       .  A
C1106      H1111   1.085       .  S
C1107      C1108   1.420       .  A
C1108      C1109   1.503       .  S
C1109      H1113   1.110       .  S
C1109      H1114   1.110       .  S
C1109      H1115   1.106       .  S
C1112      H1116   1.110       .  S
C1112      H1117   1.107       .  S
C1112      H1118   1.111       .  S
C1119      C1120   1.416       .  A
C1119      C1124   1.423       .  A
C1119      H1126   1.081       .  S
C1120      C1121   1.445       .  A
C1121      C1122   1.388       .  A
C1121      C1128   1.512       .  S
C1122      C1123   1.384       .  A
C1122      H1127   1.087       .  S
C1123      C1124   1.414       .  A
C1124      C1125   1.502       .  S
C1125      H1129   1.110       .  S
C1125      H1130   1.103       .  S
C1125      H1131   1.110       .  S
C1128      H1132   1.111       .  S
C1128      H1133   1.080       .  S
C1128      H1134   1.112       .  S
C1135      C1136   1.400       .  A
C1135      C1140   1.400       .  A
C1135      H1142   1.083       .  S
C1136      C1137   1.422       .  A
C1137      C1138   1.416       .  A
C1137      C1144   1.506       .  S
C1138      C1139   1.404       .  A
C1138      H1143   1.083       .  S
C1139      C1140   1.421       .  A
C1140      C1141   1.509       .  S
C1141      H1145   1.108       .  S
C1141      H1146   1.102       .  S
C1141      H1147   1.096       .  S
C1144      H1148   1.109       .  S
C1144      H1149   1.110       .  S
C1144      H1150   1.111       .  S
C1151      C1152   1.406       .  A
C1151      C1156   1.416       .  A
C1151      H1158   1.083       .  S
C1152      C1153   1.419       .  A
C1153      C1154   1.387       .  A
C1153      C1160   1.510       .  S
C1154      C1155   1.400       .  A
C1154      H1159   1.084       .  S
C1155      C1156   1.419       .  A
C1156      C1157   1.507       .  S
C1157      H1161   1.110       .  S
C1157      H1162   1.110       .  S
C1157      H1163   1.108       .  S
C1160      H1164   1.110       .  S
C1160      H1165   1.107       .  S
C1160      H1166   1.108       .  S
C1167      C1168   1.404       .  A
C1167      C1172   1.415       .  A
C1167      H1174   1.083       .  S
C1168      C1169   1.420       .  A
C1169      C1170   1.397       .  A
C1169      C1176   1.517       .  S
C1170      C1171   1.400       .  A
C1170      H1175   1.083       .  S
C1171      C1172   1.422       .  A
C1172      C1173   1.507       .  S
C1173      H1177   1.111       .  S
C1173      H1178   1.110       .  S
C1173      H1179   1.109       .  S
C1176      H1180   1.094       .  S
C1176      H1181   1.100       .  S
C1176      H1182   1.106       .  S
