geometry optimzed in LAMMPS
_audit_creation_date              2020-11-30 
_audit_creation_method            'lammps2cif' 
_symmetry_space_group_name_H-M    'P1' 
_symmetry_Int_Tables_number       1 
_symmetry_cell_setting            triclinic 
loop_ 
_symmetry_equiv_pos_as_xyz 
  x,y,z 
_cell_length_a                    29.3967227 
_cell_length_b                    30.141551957874345 
_cell_length_c                    42.05533573336172 
_cell_angle_alpha                 89.73426885339973 
_cell_angle_beta                  89.83767076613972 
_cell_angle_gamma                 89.63040152726538 
loop_ 
_atom_site_label 
_atom_site_type_symbol 
_atom_site_fract_x 
_atom_site_fract_y 
_atom_site_fract_z 
_atom_site_charge 
N1          N  0.59705330  0.52654165  0.39360082    -0.26600
N2          N  0.55772868  0.50939031  0.38529122    -0.34500
C3          C  0.53527681  0.53878796  0.36704493     0.01700
C4          C  0.56235195  0.57575062  0.36275553     0.07700
C5          C  0.60085019  0.56718280  0.38065653    -0.05300
H6          H  0.50647241  0.53008923  0.35242455     0.08400
H7          H  0.63267498  0.58491107  0.37893736     0.09600
Cu8        Cu  0.54914194  0.44177855  0.38166167     0.44200
Cu9        Cu  0.65036951  0.48684125  0.40779259     0.42000
Cu10       Cu  0.65292384  0.37568073  0.37308624     0.43900
N11         N  0.55387005  0.38529411  0.35422521    -0.34000
N12         N  0.59163086  0.36251102  0.34880508    -0.28300
C13         C  0.58354429  0.33385454  0.32485453    -0.04400
C14         C  0.53863162  0.33917703  0.31452786     0.07900
C15         C  0.52120071  0.37191173  0.33431360     0.01700
H16         H  0.60914970  0.31216021  0.31475496     0.09300
H17         H  0.48772922  0.38671650  0.33402247     0.08400
N18         N  0.70588712  0.40255178  0.40078930    -0.35500
N19         N  0.70351506  0.44281196  0.41312349    -0.27600
C20         C  0.74244391  0.45204598  0.42814109    -0.02900
C21         C  0.77141516  0.41607446  0.42556017     0.05700
C22         C  0.74703124  0.38501486  0.40810156     0.03800
H23         H  0.74932969  0.48326239  0.43970801     0.08900
H24         H  0.75891782  0.35285120  0.40021882     0.07800
N25         N  0.61148463  0.70786310  0.20592695    -0.26600
N26         N  0.57143228  0.72697972  0.20983388    -0.34500
C27         C  0.55023153  0.70867770  0.23491200     0.01700
C28         C  0.57817126  0.67583574  0.24694105     0.07700
C29         C  0.61663715  0.67583994  0.22796434    -0.05300
H30         H  0.51866708  0.72072365  0.24508966     0.08400
H31         H  0.64764806  0.65708649  0.23183603     0.09600
Cu32       Cu  0.55523001  0.78546098  0.18797188     0.44200
Cu33       Cu  0.66007620  0.73638648  0.17715334     0.42000
Cu34       Cu  0.64830655  0.85878180  0.17048145     0.43900
N35         N  0.55175392  0.85239091  0.19386233    -0.34000
N36         N  0.58587161  0.88041658  0.19088349    -0.28300
C37         C  0.57265781  0.91953149  0.20400936    -0.04400
C38         C  0.52817277  0.91510450  0.21556367     0.07900
C39         C  0.51676027  0.87199755  0.20852714     0.01700
H40         H  0.59395572  0.94855869  0.20547593     0.09300
H41         H  0.48620877  0.85471128  0.21563023     0.08400
N42         N  0.70154827  0.82037003  0.14981904    -0.35500
N43         N  0.70447123  0.77667351  0.15247950    -0.27600
C44         C  0.74221786  0.76203720  0.13776818    -0.02900
C45         C  0.76493688  0.79780638  0.12456318     0.05700
C46         C  0.73791881  0.83438184  0.13288528     0.03800
H47         H  0.75285996  0.72771188  0.13817977     0.08900
H48         H  0.74450213  0.86884597  0.12746222     0.07800
N49         N  0.40410457  0.02066976  0.29028301    -0.02800
C50         C  0.39373469  0.06485505  0.28832394    -0.00200
C51         C  0.35660004  0.07396010  0.30775632    -0.23100
C52         C  0.34368319  0.03478772  0.32173208    -0.23300
C53         C  0.37319584  0.00261653  0.31071718    -0.00300
H54         H  0.33975227  0.10565442  0.31097145     0.13500
H55         H  0.31595792  0.03031658  0.33840391     0.13500
N56         N  0.45212241  0.25309492  0.20771347    -0.02800
C57         C  0.44102998  0.20941550  0.20411024    -0.00200
C58         C  0.42248991  0.20297466  0.17419159    -0.23100
C59         C  0.42113081  0.24331542  0.15929399    -0.23300
C60         C  0.43898222  0.27354180  0.18025358    -0.00300
H61         H  0.40852005  0.17262858  0.16478164     0.13500
H62         H  0.40686944  0.25026482  0.13608112     0.13500
N63         N  0.47188039  0.71987435  0.45093768    -0.26600
N64         N  0.47850410  0.67968518  0.43952135    -0.34500
C65         C  0.52332070  0.67044818  0.43949797     0.01700
C66         C  0.54587154  0.70722691  0.45108203     0.07700
C67         C  0.51203303  0.73772207  0.45821866    -0.05300
H68         H  0.53822514  0.64028515  0.43016329     0.08400
H69         H  0.51624562  0.77135092  0.46653037     0.09600
Cu70       Cu  0.42478659  0.64258332  0.42366316     0.44200
Cu71       Cu  0.41103786  0.75300059  0.44725459     0.42000
Cu72       Cu  0.31909637  0.70217306  0.40734737     0.43900
N73         N  0.36139486  0.61478686  0.42802071    -0.34000
N74         N  0.32214568  0.63602597  0.42480518    -0.28300
C75         C  0.28915674  0.61007798  0.43743419    -0.04400
C76         C  0.30892277  0.57073435  0.44871341     0.07900
C77         C  0.35466710  0.57549095  0.44219355     0.01700
H78         H  0.25388419  0.62000806  0.43979276     0.09300
H79         H  0.38204685  0.55415932  0.45022620     0.08400
N80         N  0.33951514  0.76815951  0.39745289    -0.35500
N81         N  0.37174948  0.78635480  0.41476755    -0.27600
C82         C  0.38290403  0.82594964  0.40262917    -0.02900
C83         C  0.35687941  0.83411334  0.37593986     0.05700
C84         C  0.32911381  0.79671369  0.37347657     0.03800
H85         H  0.41007792  0.84622307  0.41177605     0.08900
H86         H  0.30528066  0.78963371  0.35465722     0.07800
N87         N  0.77379403  0.75887108  0.52077521    -0.26600
N88         N  0.79851696  0.73700864  0.49983582    -0.34500
C89         C  0.77252864  0.72779381  0.47444590     0.01700
C90         C  0.72994684  0.74630888  0.47960853     0.07700
C91         C  0.73209612  0.76579271  0.50913106    -0.05300
H92         H  0.78240213  0.70582307  0.45532568     0.08400
H93         H  0.70377867  0.77864578  0.52285427     0.09600
Cu94       Cu  0.86134565  0.71242570  0.51231717     0.44200
Cu95       Cu  0.79283144  0.76485966  0.56712089     0.42000
Cu96       Cu  0.88887704  0.70554914  0.59879974     0.43900
N97         N  0.90742089  0.66919392  0.53226970    -0.34000
N98         N  0.91379401  0.66184741  0.56304230    -0.28300
C99         C  0.93549224  0.62224183  0.56617010    -0.04400
C100        C  0.94375004  0.60516329  0.53593708     0.07900
C101        C  0.92567752  0.63601622  0.51535577     0.01700
H102        H  0.94306983  0.60627399  0.58864238     0.09300
H103        H  0.92176144  0.63234055  0.48992501     0.08400
N104        N  0.85333291  0.75588047  0.62423342    -0.35500
N105        N  0.81617191  0.77411886  0.61216211    -0.27600
C106        C  0.80155361  0.80719892  0.63069958    -0.02900
C107        C  0.83099037  0.81151259  0.65582231     0.05700
C108        C  0.86367560  0.77826638  0.65115565     0.03800
H109        H  0.77417759  0.82971293  0.62439162     0.08900
H110        H  0.89458347  0.77343721  0.66466880     0.07800
N111        N  0.98831205  0.43605301  0.48160865    -0.02800
C112        C  0.03084461  0.41815259  0.47901589    -0.00200
C113        C  0.02986150  0.37988174  0.46113534    -0.23100
C114        C  0.98562138  0.37369952  0.45234093    -0.23300
C115        C  0.96046920  0.40843353  0.46493999    -0.00300
H116        H  0.05829846  0.35831978  0.45545598     0.13500
H117        H  0.97322702  0.34693358  0.43771932     0.13500
N118        N  0.24410055  0.43773170  0.53683279    -0.02800
C119        C  0.20049406  0.42496506  0.54292833    -0.00200
C120        C  0.19979602  0.39244489  0.56619130    -0.23100
C121        C  0.24402877  0.38413082  0.57442315    -0.23300
C122        C  0.27078478  0.41197133  0.55617981    -0.00300
H123        H  0.17028623  0.37510061  0.57520644     0.13500
H124        H  0.25555147  0.36003662  0.59183482     0.13500
N125        N  0.62659355  0.50922911  0.63428095    -0.26600
N126        N  0.65885580  0.49623296  0.65395908    -0.34500
C127        C  0.66862967  0.52973698  0.67373091     0.01700
C128        C  0.64050321  0.56555792  0.66643643     0.07700
C129        C  0.61474592  0.55115463  0.64096277    -0.05300
H130        H  0.69016255  0.52610066  0.69439223     0.08400
H131        H  0.58455074  0.56686906  0.63145155     0.09600
Cu132      Cu  0.67267567  0.42994216  0.66138037     0.44200
Cu133      Cu  0.58623295  0.46536210  0.61030892     0.42000
Cu134      Cu  0.57361621  0.35797699  0.64874664     0.43900
N135        N  0.66779044  0.36592589  0.67840314    -0.34000
N136        N  0.63160451  0.34024502  0.67607071    -0.28300
C137        C  0.63845981  0.30412475  0.69472069    -0.04400
C138        C  0.68095984  0.30745859  0.70928109     0.07900
C139        C  0.69825227  0.34702922  0.69800386     0.01700
H140        H  0.61379300  0.27804541  0.69803188     0.09300
H141        H  0.72939334  0.36281755  0.70542442     0.08400
N142        N  0.52443538  0.38667320  0.61791264    -0.35500
N143        N  0.53111812  0.42505069  0.60331129    -0.27600
C144        C  0.49377143  0.43668014  0.58690903    -0.02900
C145        C  0.46132253  0.40421037  0.59087984     0.05700
C146        C  0.48203441  0.37278604  0.61072129     0.03800
H147        H  0.49003315  0.46756098  0.57393819     0.08900
H148        H  0.46668225  0.34319549  0.62049886     0.07800
N149        N  0.54052593  0.73607422  0.79170869    -0.26600
N150        N  0.54520446  0.76504990  0.76836068    -0.34500
C151        C  0.56406961  0.74515545  0.74314559     0.01700
C152        C  0.57184035  0.70116862  0.75074014     0.07700
C153        C  0.55615910  0.69635978  0.78178944    -0.05300
H154        H  0.57381042  0.76223364  0.72151816     0.08400
H155        H  0.55618993  0.66652912  0.79614412     0.09600
Cu156      Cu  0.53786184  0.83194537  0.77410074     0.44200
Cu157      Cu  0.51460800  0.75575480  0.83538541     0.42000
Cu158      Cu  0.53435489  0.87469346  0.85126564     0.43900
N159        N  0.57572288  0.88540813  0.78704858    -0.34000
N160        N  0.57844963  0.90048490  0.81634381    -0.28300
C161        C  0.61476373  0.92780247  0.81790841    -0.04400
C162        C  0.63567601  0.92952276  0.78797332     0.07900
C163        C  0.60968644  0.90172899  0.76942268     0.01700
H164        H  0.62646087  0.94330193  0.83951141     0.09300
H165        H  0.61731830  0.89004479  0.74574994     0.08400
N166        N  0.48385883  0.83590428  0.87352590    -0.35500
N167        N  0.47815643  0.79302168  0.86828125    -0.27600
C168        C  0.44049004  0.77924782  0.88351724    -0.02900
C169        C  0.42075188  0.81493163  0.89916847     0.05700
C170        C  0.44948105  0.85034170  0.89220292     0.03800
H171        H  0.42731422  0.74592636  0.88189578     0.08900
H172        H  0.44434257  0.88477965  0.89835646     0.07800
N173        N  0.81219550  0.99395653  0.74991578    -0.02800
C174        C  0.83264456  0.03311000  0.75695341    -0.00200
C175        C  0.87404719  0.03601110  0.74136944    -0.23100
C176        C  0.87923917  0.99789533  0.72408740    -0.23300
C177        C  0.84096446  0.97262692  0.72953886    -0.00300
H178        H  0.89720309  0.06376046  0.74138954     0.13500
H179        H  0.90728213  0.99003529  0.70831289     0.13500
N180        N  0.76217645  0.22663981  0.81917337    -0.02800
C181        C  0.76723656  0.18402746  0.82942577    -0.00200
C182        C  0.77580134  0.18379216  0.86180493    -0.23100
C183        C  0.77720621  0.22720052  0.87145334    -0.23300
C184        C  0.76908222  0.25303080  0.84485782    -0.00300
H185        H  0.78510817  0.15527148  0.87616795     0.13500
H186        H  0.78675537  0.23875008  0.89481607     0.13500
N187        N  0.49543325  0.54749184  0.00041353    -0.26600
N188        N  0.46356179  0.55558386  0.97907382    -0.34500
C189        C  0.48206222  0.57628356  0.95394070     0.01700
C190        C  0.52804867  0.58160214  0.95948296     0.07700
C191        C  0.53540419  0.56255212  0.98920601    -0.05300
H192        H  0.46287220  0.58823108  0.93369737     0.08400
H193        H  0.56719483  0.55974235  0.00191541     0.09600
Cu194      Cu  0.39515780  0.54654765  0.98682343     0.44200
Cu195      Cu  0.48117196  0.51965844  0.04450123     0.42000
Cu196      Cu  0.36452822  0.54388010  0.06845952     0.43900
N197        N  0.33435625  0.57145996  0.00316626    -0.34000
N198        N  0.32493457  0.57502427  0.03377034    -0.28300
C199        C  0.29231494  0.60616311  0.03746200    -0.04400
C200        C  0.28044880  0.62244405  0.00767336     0.07900
C201        C  0.30778148  0.59952805  0.98660822     0.01700
H202        H  0.28184794  0.61957193  0.06017055     0.09300
H203        H  0.31322310  0.60789144  0.96184014     0.08400
N204        N  0.40877311  0.50278574  0.09393577    -0.35500
N205        N  0.45082575  0.49327934  0.08492320    -0.27600
C206        C  0.46718689  0.46029347  0.10336491    -0.02900
C207        C  0.43378596  0.44790396  0.12495311     0.05700
C208        C  0.39746823  0.47625014  0.11845670     0.03800
H209        H  0.49954360  0.44388509  0.09943396     0.08900
H210        H  0.36412485  0.47609274  0.12932392     0.07800
N211        N  0.72446648  0.62251370  0.84480381    -0.26600
N212        N  0.73670857  0.65769451  0.86106556    -0.34500
C213        C  0.70074865  0.67275037  0.87769570     0.01700
C214        C  0.66406238  0.64529037  0.87193437     0.07700
C215        C  0.68030825  0.61446519  0.85032292    -0.05300
H216        H  0.70337580  0.69652653  0.89678638     0.08400
H217        H  0.66428371  0.58328708  0.84464203     0.09600
Cu218      Cu  0.80337428  0.66710272  0.87378576     0.44200
Cu219      Cu  0.77063855  0.57347169  0.83395822     0.42000
Cu220      Cu  0.85571805  0.56182301  0.89729962     0.43900
N221        N  0.85620436  0.66198074  0.90550262    -0.34000
N222        N  0.87315919  0.62437596  0.91679236    -0.28300
C223        C  0.89901726  0.63418565  0.94237269    -0.04400
C224        C  0.89769568  0.68005044  0.94745867     0.07900
C225        C  0.87076410  0.69609855  0.92296200     0.01700
H226        H  0.91557286  0.60954059  0.95718601     0.09300
H227        H  0.86026439  0.72988925  0.91847668     0.08400
N228        N  0.82966064  0.50829928  0.87024498    -0.35500
N229        N  0.80096855  0.51426984  0.84638011    -0.27600
C230        C  0.78748059  0.47484791  0.83529329    -0.02900
C231        C  0.80835671  0.44156635  0.85266991     0.05700
C232        C  0.83521536  0.46407894  0.87463894     0.03800
H233        H  0.76235974  0.47089856  0.81679553     0.08900
H234        H  0.85521511  0.44952607  0.89358265     0.07800
N235        N  0.97335923  0.77776734  0.05291211    -0.02800
C236        C  0.01820324  0.78738822  0.05697434    -0.00200
C237        C  0.02426237  0.81030194  0.08501495    -0.23100
C238        C  0.98201023  0.81605774  0.09829000    -0.23300
C239        C  0.95110155  0.79649996  0.07805914    -0.00300
H240        H  0.05579853  0.82363097  0.09399101     0.13500
H241        H  0.97454871  0.83341196  0.12018335     0.13500
N242        N  0.21396371  0.79376548  0.97063044    -0.02800
C243        C  0.17295151  0.81364888  0.97612110    -0.00200
C244        C  0.17334601  0.85652201  0.96413950    -0.23100
C245        C  0.21572237  0.86343186  0.95127617    -0.23300
C246        C  0.24001058  0.82450382  0.95541865    -0.00300
H247        H  0.14607712  0.88074727  0.96544827     0.13500
H248        H  0.22752608  0.89359738  0.93999980     0.13500
C249        C  0.05547220  0.78292445  0.03316147    -0.04800
C250        C  0.09896980  0.77020933  0.04376345    -0.32200
C251        C  0.13776246  0.77685998  0.02481957     0.37000
C252        C  0.13332183  0.79575786  0.99423493    -0.05100
C253        C  0.08937582  0.80535301  0.98281423    -0.32100
C254        C  0.05086373  0.79997816  0.00210164     0.36900
H255        H  0.10331646  0.75804563  0.06786198     0.17300
O256        O  0.17981553  0.76991137  0.03800065    -0.59600
H257        H  0.08515678  0.82032692  0.95952274     0.17300
O258        O  0.00978025  0.81562537  0.99134771    -0.59700
H259        H  0.00756319  0.84654569  0.99918546     0.44300
H260        H  0.18231585  0.73735463  0.04129846     0.44300
C261        C  0.91684288  0.70580871  0.97475274    -0.04800
C262        C  0.95245654  0.68754614  0.99299053    -0.32200
C263        C  0.97105664  0.71077414  0.01874621     0.37000
C264        C  0.95385137  0.75287847  0.02707272    -0.05100
C265        C  0.91799272  0.77096821  0.00940700    -0.32100
C266        C  0.89968098  0.74823574  0.98345113     0.36900
H267        H  0.96631794  0.65520348  0.98722436     0.17300
O268        O  0.00482066  0.69132981  0.03654118    -0.59600
H269        H  0.90452648  0.80336794  0.01552093     0.17300
O270        O  0.86376465  0.76740285  0.96775970    -0.59700
H271        H  0.87719165  0.79153040  0.95472713     0.44300
H272        H  0.03219743  0.69119101  0.02268431     0.44300
C273        C  0.62618819  0.63622080  0.89419851    -0.04800
C274        C  0.63340794  0.63921544  0.92714283    -0.32200
C275        C  0.60156720  0.62236900  0.94880768     0.37000
C276        C  0.56135100  0.60259333  0.93764300    -0.05100
C277        C  0.55296162  0.60227069  0.90473753    -0.32100
C278        C  0.58510873  0.61851434  0.88311493     0.36900
H279        H  0.66483802  0.65261197  0.93627475     0.17300
O280        O  0.60982768  0.62616184  0.98076427    -0.59600
H281        H  0.52214353  0.58778157  0.89547816     0.17300
O282        O  0.57620389  0.61686411  0.85112868    -0.59700
H283        H  0.57880859  0.58511329  0.84529707     0.44300
H284        H  0.63433659  0.60434500  0.98543707     0.44300
C285        C  0.22887004  0.75044496  0.98096977    -0.04800
C286        C  0.26870674  0.74646557  0.99906126    -0.32200
C287        C  0.28473815  0.70488951  0.00881516     0.37000
C288        C  0.26074170  0.66638546  0.00066405    -0.05100
C289        C  0.22095350  0.67010205  0.98250587    -0.32100
C290        C  0.20460123  0.71195078  0.97294778     0.36900
H291        H  0.28753573  0.77585001  0.00546300     0.17300
O292        O  0.32470377  0.70205972  0.02548310    -0.59600
H293        H  0.20297451  0.64052380  0.97535838     0.17300
O294        O  0.16643621  0.71487262  0.95435105    -0.59700
H295        H  0.14076722  0.70681374  0.96849807     0.44300
H296        H  0.34886343  0.69908271  0.00908119     0.44300
C297        C  0.79899689  0.39308132  0.84991711    -0.04800
C298        C  0.75623802  0.37873468  0.83888480    -0.32200
C299        C  0.74607015  0.33341179  0.83628672     0.37000
C300        C  0.77910066  0.30133581  0.84414641    -0.05100
C301        C  0.82194277  0.31554452  0.85469973    -0.32100
C302        C  0.83195924  0.36077632  0.85776558     0.36900
H303        H  0.72991372  0.40268654  0.83308703     0.17300
O304        O  0.70330844  0.32100942  0.82712219    -0.59600
H305        H  0.84780187  0.29126004  0.86093592     0.17300
O306        O  0.87461343  0.37294360  0.86737557    -0.59700
H307        H  0.87522801  0.36730826  0.89062589     0.44300
H308        H  0.68555812  0.31857047  0.84712131     0.44300
C309        C  0.81373566  0.07015462  0.77626422    -0.04800
C310        C  0.76932423  0.08650039  0.77136426    -0.32200
C311        C  0.75344097  0.12436351  0.78770562     0.37000
C312        C  0.78217290  0.14623422  0.80922528    -0.05100
C313        C  0.82637288  0.12962724  0.81397306    -0.32100
C314        C  0.84215739  0.09219676  0.79785518     0.36900
H315        H  0.74716867  0.07047412  0.75447090     0.17300
O316        O  0.70945806  0.13848496  0.78347904    -0.59600
H317        H  0.84893796  0.14566896  0.83064151     0.17300
O318        O  0.88505754  0.07631091  0.80428134    -0.59700
H319        H  0.90622751  0.09815160  0.79472249     0.44300
H320        H  0.70821800  0.15018959  0.76143936     0.44300
C321        C  0.76764562  0.97959983  0.75990100    -0.04800
C322        C  0.73474446  0.97031254  0.73701119    -0.32200
C323        C  0.69123192  0.95634011  0.74586028     0.37000
C324        C  0.68004648  0.94969656  0.77835360    -0.05100
C325        C  0.71288391  0.96024436  0.80136206    -0.32100
C326        C  0.75622555  0.97547082  0.79233077     0.36900
H327        H  0.74274865  0.97462315  0.71203563     0.17300
O328        O  0.65994188  0.94971012  0.72228990    -0.59600
H329        H  0.70553499  0.95565910  0.82639302     0.17300
O330        O  0.78801239  0.98411169  0.81525162    -0.59700
H331        H  0.77767483  0.01196687  0.82555050     0.44300
H332        H  0.64219569  0.97773038  0.72104889     0.44300
C333        C  0.37563001  0.81568317  0.91579751    -0.04800
C334        C  0.34318700  0.78265112  0.90929300    -0.32200
C335        C  0.29952604  0.78404662  0.92289554     0.37000
C336        C  0.28748403  0.81856698  0.94374798    -0.05100
C337        C  0.31997834  0.85091322  0.95090650    -0.32100
C338        C  0.36368127  0.84949314  0.93748424     0.36900
H339        H  0.35083889  0.75638373  0.89263539     0.17300
O340        O  0.26831663  0.75264124  0.91442445    -0.59600
H341        H  0.31123429  0.87779811  0.96686139     0.17300
O342        O  0.39417945  0.88160801  0.94574321    -0.59700
H343        H  0.41120518  0.86903601  0.96404437     0.44300
H344        H  0.25025584  0.76644847  0.89707130     0.44300
C345        C  0.62842109  0.60326922  0.68749721    -0.04800
C346        C  0.63662722  0.60028982  0.72041053    -0.32200
C347        C  0.61903678  0.63209854  0.74137992     0.37000
C348        C  0.59284763  0.66774009  0.72955607    -0.05100
C349        C  0.58710529  0.67220295  0.69656958    -0.32100
C350        C  0.60464283  0.64054390  0.67560910     0.36900
H351        H  0.65536864  0.57250910  0.73029994     0.17300
O352        O  0.62896540  0.62882022  0.77316698    -0.59600
H353        H  0.56794454  0.69987833  0.68683099     0.17300
O354        O  0.59915335  0.64687093  0.64349507    -0.59700
H355        H  0.56596601  0.64457020  0.63958934     0.44300
H356        H  0.61024438  0.60397147  0.78130186     0.44300
C357        C  0.74311192  0.24078852  0.78929069    -0.04800
C358        C  0.69587628  0.23885612  0.78496069    -0.32200
C359        C  0.67515908  0.25816123  0.75822120     0.37000
C360        C  0.70187270  0.28006932  0.73513423    -0.05100
C361        C  0.74958784  0.27995960  0.73891458    -0.32100
C362        C  0.77012892  0.26049590  0.76570506     0.36900
H363        H  0.67482804  0.22397481  0.80324897     0.17300
O364        O  0.62866225  0.25755805  0.75599728    -0.59600
H365        H  0.77104498  0.29610113  0.72143818     0.17300
O366        O  0.81639200  0.26252565  0.76930230    -0.59700
H367        H  0.82796401  0.23316722  0.76234041     0.44300
H368        H  0.61803702  0.28421226  0.76768277     0.44300
C369        C  0.32126934  0.41185453  0.55933036    -0.04800
C370        C  0.34399442  0.37066345  0.56135547    -0.32200
C371        C  0.38941045  0.36758058  0.57133222     0.37000
C372        C  0.41355735  0.40620938  0.57901952    -0.05100
C373        C  0.39145749  0.44762890  0.57557277    -0.32100
C374        C  0.34569512  0.45063567  0.56607145     0.36900
H375        H  0.32580244  0.34035690  0.55628897     0.17300
O376        O  0.41000418  0.32667455  0.57300875    -0.59600
H377        H  0.40902065  0.47787046  0.58167266     0.17300
O378        O  0.32416932  0.49113712  0.56633787    -0.59700
H379        H  0.33691355  0.50768710  0.54797426     0.44300
H380        H  0.39758304  0.31253583  0.59249212     0.44300
C381        C  0.07331954  0.43375228  0.49435076    -0.04800
C382        C  0.11398158  0.43168284  0.47672346    -0.32200
C383        C  0.15642726  0.43277684  0.49173872     0.37000
C384        C  0.15871069  0.43712013  0.52499868    -0.05100
C385        C  0.11813416  0.44359667  0.54221869    -0.32100
C386        C  0.07564009  0.44156440  0.52727840     0.36900
H387        H  0.11283516  0.42536703  0.45139100     0.17300
O388        O  0.19470979  0.42350302  0.47423790    -0.59600
H389        H  0.11924217  0.44650151  0.56788277     0.17300
O390        O  0.03706097  0.44133887  0.54568123    -0.59700
H391        H  0.03392636  0.47200742  0.55389956     0.44300
H392        H  0.19934610  0.44985128  0.46040668     0.44300
C393        C  0.97740647  0.47790387  0.49657217    -0.04800
C394        C  0.00268370  0.51566862  0.48845741    -0.32200
C395        C  0.99375879  0.55663127  0.50274448     0.37000
C396        C  0.95932050  0.56056774  0.52589711    -0.05100
C397        C  0.93472179  0.52265595  0.53478711    -0.32100
C398        C  0.94325816  0.48153826  0.52004946     0.36900
H399        H  0.02900968  0.51342312  0.47045866     0.17300
O400        O  0.01805376  0.59308842  0.49325170    -0.59600
H401        H  0.90754981  0.52533747  0.55214152     0.17300
O402        O  0.91902965  0.44491595  0.52924456    -0.59700
H403        H  0.88782174  0.44985665  0.52098139     0.44300
H404        H  0.04554248  0.59302005  0.50687279     0.44300
C405        C  0.83364193  0.85205820  0.67556397    -0.04800
C406        C  0.82996058  0.85008330  0.70888335    -0.32200
C407        C  0.82937778  0.88931897  0.72707000     0.37000
C408        C  0.83265561  0.93096130  0.71185952    -0.05100
C409        C  0.83578294  0.93260882  0.67862310    -0.32100
C410        C  0.83591122  0.89388405  0.66054111     0.36900
H411        H  0.82730688  0.81822036  0.72073856     0.17300
O412        O  0.82684216  0.88657211  0.75956999    -0.59600
H413        H  0.83917606  0.96429158  0.66657393     0.17300
O414        O  0.84030972  0.89715384  0.62811194    -0.59700
H415        H  0.81012939  0.90730421  0.62035052     0.44300
H416        H  0.85881906  0.88381467  0.76682567     0.44300
C417        C  0.59526601  0.71517429  0.45290370    -0.04800
C418        C  0.61102319  0.75893877  0.45015493    -0.32200
C419        C  0.65631137  0.76900486  0.45629651     0.37000
C420        C  0.68694633  0.73499706  0.46436016    -0.05100
C421        C  0.67239008  0.69078440  0.46466474    -0.32100
C422        C  0.62662397  0.68069619  0.45932810     0.36900
H423        H  0.58790392  0.78586480  0.44435278     0.17300
O424        O  0.67015085  0.81239345  0.45542776    -0.59600
H425        H  0.69566537  0.66447094  0.47161524     0.17300
O426        O  0.61255994  0.63761978  0.46259876    -0.59700
H427        H  0.60660089  0.63358601  0.48566689     0.44300
H428        H  0.66040969  0.82518351  0.47606376     0.44300
C429        C  0.28904392  0.53509590  0.46915768    -0.04800
C430        C  0.25349173  0.54495220  0.49042305    -0.32200
C431        C  0.23831554  0.51324210  0.51264504     0.37000
C432        C  0.25870061  0.47072694  0.51390567    -0.05100
C433        C  0.29308005  0.46037643  0.49197881    -0.32100
C434        C  0.30825821  0.49193264  0.46979071     0.36900
H435        H  0.23854346  0.57788052  0.49073735     0.17300
O436        O  0.20550525  0.52493383  0.53435508    -0.59600
H437        H  0.30808638  0.42747010  0.49197064     0.17300
O438        O  0.34099563  0.47977564  0.44813600    -0.59700
H439        H  0.36918259  0.47501718  0.46067217     0.44300
H440        H  0.17734716  0.52987053  0.52181974     0.44300
C441        C  0.43786224  0.32173082  0.17337283    -0.04800
C442        C  0.39607308  0.34068282  0.16458802    -0.32200
C443        C  0.39382004  0.38251444  0.15027901     0.37000
C444        C  0.43402533  0.40686334  0.14483680    -0.05100
C445        C  0.47567145  0.38894268  0.15562326    -0.32100
C446        C  0.47775922  0.34667167  0.16983551     0.36900
H447        H  0.36509111  0.32162906  0.16701794     0.17300
O448        O  0.35240084  0.39742571  0.13964037    -0.59600
H449        H  0.50700572  0.40694332  0.15184717     0.17300
O450        O  0.51921481  0.32854840  0.17751938    -0.59700
H451        H  0.52743244  0.34205326  0.19815832     0.44300
H452        H  0.34950683  0.38554192  0.11780216     0.44300
C453        C  0.37159641  0.95579244  0.32200546    -0.04800
C454        C  0.33008250  0.93280649  0.32160338    -0.32200
C455        C  0.32516159  0.89192601  0.33748025     0.37000
C456        C  0.36201190  0.87352730  0.35451193    -0.05100
C457        C  0.40413841  0.89566904  0.35338341    -0.32100
C458        C  0.40907288  0.93631082  0.33741313     0.36900
H459        H  0.30079988  0.94750828  0.30992277     0.17300
O460        O  0.28358734  0.87159586  0.33751387    -0.59600
H461        H  0.43337580  0.88221095  0.36578304     0.17300
O462        O  0.44941362  0.95870452  0.33964291    -0.59700
H463        H  0.47130285  0.94175156  0.32635758     0.44300
H464        H  0.26664389  0.88493591  0.35556331     0.44300
C465        C  0.41573158  0.10008257  0.26825599    -0.04800
C466        C  0.41588307  0.14386526  0.27995236    -0.32200
C467        C  0.42591378  0.18027623  0.26027177     0.37000
C468        C  0.44025004  0.17329917  0.22865998    -0.05100
C469        C  0.44446470  0.12925115  0.21798260    -0.32100
C470        C  0.42981515  0.09338393  0.23651574     0.36900
H471        H  0.40461096  0.15050049  0.30401460     0.17300
O472        O  0.41574815  0.22201459  0.27106918    -0.59600
H473        H  0.45482918  0.12269642  0.19370242     0.17300
O474        O  0.42476757  0.05335834  0.22180726    -0.59700
H475        H  0.39319086  0.05355524  0.21352590     0.44300
H476        H  0.43702728  0.22738578  0.28887956     0.44300
C477        C  0.43613159  0.99577039  0.27132199    -0.04800
C478        C  0.48309339  0.00409019  0.27271671    -0.32200
C479        C  0.51399595  0.97929244  0.25407009     0.37000
C480        C  0.49779337  0.94610729  0.23344523    -0.05100
C481        C  0.45052873  0.93940089  0.23153826    -0.32100
C482        C  0.42010039  0.96344625  0.25030461     0.36900
H483        H  0.49571348  0.02914227  0.28875581     0.17300
O484        O  0.55975917  0.98607417  0.25754625    -0.59600
H485        H  0.43673007  0.91507295  0.21541667     0.17300
O486        O  0.37435826  0.95571386  0.24754825    -0.59700
H487        H  0.36373250  0.97604915  0.23047719     0.44300
H488        H  0.56649536  0.01272470  0.24450407     0.44300
C489        C  0.81056027  0.79740105  0.10841413    -0.04800
C490        C  0.83551712  0.83691094  0.10638262    -0.32200
C491        C  0.88003210  0.83722306  0.09446057     0.37000
C492        C  0.90118649  0.79754294  0.08434986    -0.05100
C493        C  0.87571592  0.75845552  0.08442988    -0.32100
C494        C  0.83084474  0.75805230  0.09623894     0.36900
H495        H  0.82126897  0.86775150  0.11506437     0.17300
O496        O  0.90318800  0.87658537  0.09373259    -0.59600
H497        H  0.89122131  0.72764921  0.07664941     0.17300
O498        O  0.80722626  0.71901434  0.09536723    -0.59700
H499        H  0.82155935  0.69966792  0.11171515     0.44300
H500        H  0.89909526  0.88818847  0.07185570     0.44300
C501        C  0.56341724  0.60199899  0.33320269    -0.04800
C502        C  0.56509718  0.64841738  0.33434106    -0.32200
C503        C  0.56910282  0.67317411  0.30618982     0.37000
C504        C  0.57208686  0.65123541  0.27672872    -0.05100
C505        C  0.57099337  0.60499181  0.27568010    -0.32100
C506        C  0.56662097  0.58031244  0.30359431     0.36900
H507        H  0.56369666  0.66532409  0.35701687     0.17300
O508        O  0.57122819  0.71856340  0.30772100    -0.59600
H509        H  0.57378110  0.58795845  0.25310837     0.17300
O510        O  0.56670789  0.53488579  0.30173935    -0.59700
H511        H  0.59903151  0.52587099  0.30420506     0.44300
H512        H  0.60413768  0.72545942  0.30875856     0.44300
C513        C  0.47369050  0.27420733  0.23449793    -0.04800
C514        C  0.45438359  0.31251371  0.24770202    -0.32200
C515        C  0.47469014  0.33395773  0.27346732     0.37000
C516        C  0.51553091  0.31709075  0.28698865    -0.05100
C517        C  0.53479193  0.27854799  0.27349098    -0.32100
C518        C  0.51441672  0.25741822  0.24747748     0.36900
H519        H  0.42296599  0.32579611  0.23809302     0.17300
O520        O  0.45486601  0.37234852  0.28416730    -0.59600
H521        H  0.56585227  0.26450322  0.28305885     0.17300
O522        O  0.53481701  0.22052676  0.23473481    -0.59700
H523        H  0.55273073  0.23164122  0.21637515     0.44300
H524        H  0.42790013  0.36277328  0.29660349     0.44300
C525        C  0.81914835  0.41415351  0.43718778    -0.04800
C526        C  0.84493298  0.45335516  0.43829413    -0.32200
C527        C  0.89046556  0.45282869  0.44818491     0.37000
C528        C  0.91072636  0.41287819  0.45861482    -0.05100
C529        C  0.88439388  0.37393742  0.45832294    -0.32100
C530        C  0.83939648  0.37421421  0.44745732     0.36900
H531        H  0.83039843  0.48443965  0.43007899     0.17300
O532        O  0.91518398  0.49107592  0.44573849    -0.59600
H533        H  0.89923208  0.34263262  0.46587698     0.17300
O534        O  0.81577865  0.33514192  0.44686279    -0.59700
H535        H  0.79943356  0.33379663  0.46747847     0.44300
H536        H  0.93118554  0.48907075  0.42501321     0.44300
loop_ 
_geom_bond_atom_site_label_1 
_geom_bond_atom_site_label_2 
_geom_bond_distance 
_geom_bond_site_symmetry_2 
_ccdc_geom_bond_type 
N1            N2   1.318       .  A
N1            C5   1.343       .  A
N1           Cu9   2.054       .  S
N2            C3   1.341       .  A
N2           Cu8   2.062       .  S
C3            C4   1.384       .  A
C3            H6   1.082       .  S
C4            C5   1.383       .  A
C4          C501   1.471       .  S
C5            H7   1.082       .  S
Cu8          N11   2.065       .  S
Cu9          N19   2.055       .  S
Cu10         N12   2.114       .  S
Cu10         N18   2.115       .  S
N11          N12   1.321       .  A
N11          C15   1.341       .  A
N12          C13   1.352       .  A
C13          C14   1.399       .  A
C13          H16   1.081       .  S
C14          C15   1.388       .  A
C14         C516   1.504       .  S
C15          H17   1.078       .  S
N18          N19   1.323       .  A
N18          C22   1.352       .  A
N19          C20   1.340       .  A
C20          C21   1.379       .  A
C20          H23   1.082       .  S
C21          C22   1.395       .  A
C21         C525   1.488       .  S
C22          H24   1.082       .  S
N25          N26   1.318       .  A
N25          C29   1.343       .  A
N25         Cu33   2.059       .  S
N26          C27   1.342       .  A
N26         Cu32   2.039       .  S
C27          C28   1.378       .  A
C27          H30   1.082       .  S
C28          C29   1.382       .  A
C28         C504   1.464       .  S
C29          H31   1.082       .  S
Cu32         N35   2.036       .  S
Cu33         N43   2.063       .  S
Cu34         N36   2.124       .  S
Cu34         N42   2.127       .  S
N35          N36   1.321       .  A
N35          C39   1.334       .  A
N36          C37   1.358       .  A
C37          C38   1.401       .  A
C37          H40   1.081       .  S
C38          C39   1.378       .  A
C38         C480   1.493       .  S
C39          H41   1.082       .  S
N42          N43   1.324       .  A
N42          C46   1.352       .  A
N43          C44   1.342       .  A
C44          C45   1.385       .  A
C44          H47   1.079       .  S
C45          C46   1.400       .  A
C45         C489   1.502       .  S
C46          H48   1.081       .  S
N49          C53   1.363       .  A
N49          C50   1.367       .  A
N49         C477   1.441   1_545  S
C50          C51   1.389       .  A
C50         C465   1.502       .  S
C51          C52   1.372       .  A
C51          H54   1.082       .  S
C52          C53   1.378       .  A
C52          H55   1.082       .  S
C53         C453   1.488   1_545  S
N56          C60   1.362       .  A
N56          C57   1.368       .  A
N56         C513   1.446       .  S
C57          C58   1.388       .  A
C57         C468   1.497       .  S
C58          C59   1.366       .  A
C58          H61   1.082       .  S
C59          C60   1.378       .  A
C59          H62   1.083       .  S
C60         C441   1.480       .  S
N63          N64   1.318       .  A
N63          C67   1.337       .  A
N63         Cu71   2.049       .  S
N64          C65   1.345       .  A
N64         Cu70   2.055       .  S
C65          C66   1.386       .  A
C65          H68   1.082       .  S
C66          C67   1.383       .  A
C66         C417   1.475       .  S
C67          H69   1.082       .  S
Cu70         N73   2.055       .  S
Cu71         N81   2.048       .  S
Cu72         N74   2.123       .  S
Cu72         N80   2.120       .  S
N73          N74   1.323       .  A
N73          C77   1.339       .  A
N74          C75   1.355       .  A
C75          C76   1.399       .  A
C75          H78   1.082       .  S
C76          C77   1.380       .  A
C76         C429   1.494       .  S
C77          H79   1.081       .  S
N80          N81   1.320       .  A
N80          C84   1.357       .  A
N81          C82   1.338       .  A
C82          C83   1.380       .  A
C82          H85   1.082       .  S
C83          C84   1.400       .  A
C83         C456   1.496       .  S
C84          H86   1.081       .  S
N87          N88   1.317       .  A
N87          C91   1.336       .  A
N87         Cu95   2.038       .  S
N88          C89   1.346       .  A
N88         Cu94   2.054       .  S
C89          C90   1.384       .  A
C89          H92   1.082       .  S
C90          C91   1.378       .  A
C90         C420   1.462       .  S
C91          H93   1.082       .  S
Cu94         N97   2.052       .  S
Cu95        N105   2.038       .  S
Cu96         N98   2.129       .  S
Cu96        N104   2.127       .  S
N97          N98   1.326       .  A
N97         C101   1.338       .  A
N98          C99   1.356       .  A
C99         C100   1.394       .  A
C99         H102   1.082       .  S
C100        C101   1.373       .  A
C100        C396   1.480       .  S
C101        H103   1.082       .  S
N104        N105   1.321       .  A
N104        C108   1.357       .  A
N105        C106   1.337       .  A
C106        C107   1.375       .  A
C106        H109   1.082       .  S
C107        C108   1.398       .  A
C107        C405   1.483       .  S
C108        H110   1.082       .  S
N111        C115   1.368       .  A
N111        C112   1.363   1_655  A
N111        C393   1.446       .  S
C112        C113   1.380       .  A
C112        C381   1.487       .  S
C113        C114   1.367   1_455  A
C113        H116   1.082       .  S
C114        C115   1.384       .  A
C114        H117   1.082       .  S
C115        C528   1.492       .  S
N118        C122   1.368       .  A
N118        C119   1.364       .  A
N118        C432   1.448       .  S
C119        C120   1.382       .  A
C119        C384   1.486       .  S
C120        C121   1.368       .  A
C120        H123   1.082       .  S
C121        C122   1.382       .  A
C121        H124   1.082       .  S
C122        C369   1.490       .  S
N125        N126   1.317       .  A
N125        C129   1.340       .  A
N125       Cu133   2.052       .  S
N126        C127   1.344       .  A
N126       Cu132   2.059       .  S
C127        C128   1.389       .  A
C127        H130   1.081       .  S
C128        C129   1.387       .  A
C128        C345   1.485       .  S
C129        H131   1.080       .  S
Cu132       N135   2.061       .  S
Cu133       N143   2.054       .  S
Cu134       N136   2.123       .  S
Cu134       N142   2.122       .  S
N135        N136   1.324       .  A
N135        C139   1.341       .  A
N136        C137   1.353       .  A
C137        C138   1.397       .  A
C137        H140   1.081       .  S
C138        C139   1.381       .  A
C138        C360   1.493       .  S
C139        H141   1.082       .  S
N142        N143   1.323       .  A
N142        C146   1.353       .  A
N143        C144   1.342       .  A
C144        C145   1.380       .  A
C144        H147   1.082       .  S
C145        C146   1.397       .  A
C145        C372   1.492       .  S
C146        H148   1.081       .  S
N149        N150   1.319       .  A
N149        C153   1.347       .  A
N149       Cu157   2.074       .  S
N150        C151   1.338       .  A
N150       Cu156   2.042       .  S
C151        C152   1.380       .  A
C151        H154   1.082       .  S
C152        C153   1.391       .  A
C152        C348   1.479       .  S
C153        H155   1.081       .  S
Cu156       N159   2.041       .  S
Cu157       N167   2.077       .  S
Cu158       N160   2.106       .  S
Cu158       N166   2.110       .  S
N159        N160   1.318       .  A
N159        C163   1.337       .  A
N160        C161   1.354       .  A
C161        C162   1.400       .  A
C161        H164   1.082       .  S
C162        C163   1.383       .  A
C162        C324   1.497       .  S
C163        H165   1.080       .  S
N166        N167   1.324       .  A
N166        C170   1.349       .  A
N167        C168   1.345       .  A
C168        C169   1.387       .  A
C168        H171   1.081       .  S
C169        C170   1.395       .  A
C169        C333   1.498       .  S
C170        H172   1.081       .  S
N173        C177   1.363       .  A
N173        C174   1.362   1_565  A
N173        C321   1.443       .  S
C174        C175   1.384       .  A
C174        C309   1.488       .  S
C175        C176   1.370   1_545  A
C175        H178   1.082       .  S
C176        C177   1.381       .  A
C176        H179   1.082       .  S
C177        C408   1.484       .  S
N180        C184   1.361       .  A
N180        C181   1.360       .  A
N180        C357   1.439       .  S
C181        C182   1.385       .  A
C181        C312   1.487       .  S
C182        C183   1.373       .  A
C182        H185   1.083       .  S
C183        C184   1.380       .  A
C183        H186   1.082       .  S
C184        C300   1.487       .  S
N187        N188   1.320   1_554  A
N187        C191   1.346   1_554  A
N187       Cu195   2.074       .  S
N188        C189   1.341       .  A
N188       Cu194   2.056       .  S
C189        C190   1.383       .  A
C189        H192   1.082       .  S
C190        C191   1.390       .  A
C190        C276   1.483       .  S
C191        H193   1.081   1_556  S
Cu194       N197   2.052   1_556  S
Cu195       N205   2.075       .  S
Cu196       N198   2.085       .  S
Cu196       N204   2.085       .  S
N197        N198   1.320       .  A
N197        C201   1.342   1_554  A
N198        C199   1.347       .  A
C199        C200   1.388       .  A
C199        H202   1.082       .  S
C200        C201   1.379   1_554  A
C200        C288   1.471       .  S
C201        H203   1.082       .  S
N204        N205   1.322       .  A
N204        C208   1.344       .  A
N205        C206   1.345       .  A
C206        C207   1.387       .  A
C206        H209   1.082       .  S
C207        C208   1.390       .  A
C207        C444   1.490       .  S
C208        H210   1.080       .  S
N211        N212   1.317       .  A
N211        C215   1.342       .  A
N211       Cu219   2.052       .  S
N212        C213   1.344       .  A
N212       Cu218   2.055       .  S
C213        C214   1.386       .  A
C213        H216   1.082       .  S
C214        C215   1.385       .  A
C214        C273   1.479       .  S
C215        H217   1.082       .  S
Cu218       N221   2.055       .  S
Cu219       N229   2.056       .  S
Cu220       N222   2.126       .  S
Cu220       N228   2.126       .  S
N221        N222   1.322       .  A
N221        C225   1.340       .  A
N222        C223   1.354       .  A
C223        C224   1.400       .  A
C223        H226   1.081       .  S
C224        C225   1.385       .  A
C224        C261   1.502       .  S
C225        H227   1.078       .  S
N228        N229   1.324       .  A
N228        C232   1.354       .  A
N229        C230   1.341       .  A
C230        C231   1.380       .  A
C230        H233   1.082       .  S
C231        C232   1.398       .  A
C231        C297   1.494       .  S
C232        H234   1.081       .  S
N235        C239   1.365       .  A
N235        C236   1.363   1_655  A
N235        C264   1.445       .  S
C236        C237   1.382       .  A
C236        C249   1.488       .  S
C237        C238   1.371   1_455  A
C237        H240   1.082       .  S
C238        C239   1.383       .  A
C238        H241   1.082       .  S
C239        C492   1.490       .  S
N242        C246   1.362       .  A
N242        C243   1.363       .  A
N242        C285   1.440       .  S
C243        C244   1.385       .  A
C243        C252   1.493       .  S
C244        C245   1.373       .  A
C244        H247   1.082       .  S
C245        C246   1.380       .  A
C245        H248   1.082       .  S
C246        C336   1.488       .  S
C249        C250   1.406       .  A
C249        C254   1.408       .  A
C250        C251   1.404       .  A
C250        H255   1.084       .  S
C251        C252   1.410   1_554  A
C251        O256   1.371       .  S
C252        C253   1.407       .  A
C253        C254   1.401   1_556  A
C253        H257   1.084       .  S
C254        O258   1.371   1_554  S
O256        H260   0.993       .  S
O258        H259   0.992       .  S
C261        C262   1.407       .  A
C261        C266   1.421       .  A
C262        C263   1.406   1_556  A
C262        H267   1.082       .  S
C263        C264   1.408       .  A
C263        O268   1.372   1_655  S
C264        C265   1.398       .  A
C265        C266   1.402   1_554  A
C265        H269   1.083       .  S
C266        O270   1.370       .  S
O268        H272   0.992       .  S
O270        H271   0.992       .  S
C273        C274   1.406       .  A
C273        C278   1.405       .  A
C274        C275   1.400       .  A
C274        H279   1.083       .  S
C275        C276   1.410       .  A
C275        O280   1.372       .  S
C276        C277   1.406       .  A
C277        C278   1.399       .  A
C277        H281   1.082       .  S
C278        O282   1.372       .  S
O280        H284   0.992       .  S
O282        H283   0.991       .  S
C285        C286   1.403       .  A
C285        C290   1.409       .  A
C286        C287   1.396   1_556  A
C286        H291   1.083   1_556  S
C287        C288   1.406       .  A
C287        O292   1.372       .  S
C288        C289   1.402   1_554  A
C289        C290   1.404       .  A
C289        H293   1.084       .  S
C290        O294   1.372       .  S
O292        H296   0.993       .  S
O294        H295   0.990       .  S
C297        C298   1.412       .  A
C297        C302   1.408       .  A
C298        C299   1.405       .  A
C298        H303   1.082       .  S
C299        C300   1.405       .  A
C299        O304   1.371       .  S
C300        C301   1.407       .  A
C301        C302   1.403       .  A
C301        H305   1.084       .  S
C302        O306   1.371       .  S
O304        H308   0.991       .  S
O306        H307   0.992       .  S
C309        C310   1.408       .  A
C309        C314   1.407       .  A
C310        C311   1.411       .  A
C310        H315   1.083       .  S
C311        C312   1.409       .  A
C311        O316   1.370       .  S
C312        C313   1.404       .  A
C313        C314   1.395       .  A
C313        H317   1.084       .  S
C314        O318   1.373       .  S
O316        H320   0.991       .  S
O318        H319   0.992       .  S
C321        C322   1.397       .  A
C321        C326   1.409       .  A
C322        C323   1.398       .  A
C322        H327   1.083       .  S
C323        C324   1.418       .  A
C323        O328   1.370       .  S
C324        C325   1.408       .  A
C325        C326   1.408       .  A
C325        H329   1.082       .  S
C326        O330   1.371       .  S
O328        H332   0.991       .  S
O330        H331   0.992   1_565  S
C333        C334   1.411       .  A
C333        C338   1.413       .  A
C334        C335   1.404       .  A
C334        H339   1.082       .  S
C335        C336   1.407       .  A
C335        O340   1.371       .  S
C336        C337   1.404       .  A
C337        C338   1.402       .  A
C337        H341   1.084       .  S
C338        O342   1.370       .  S
O340        H344   0.992       .  S
O342        H343   0.992       .  S
C345        C346   1.408       .  A
C345        C350   1.410       .  A
C346        C347   1.401       .  A
C346        H351   1.082       .  S
C347        C348   1.407       .  A
C347        O352   1.372       .  S
C348        C349   1.404       .  A
C349        C350   1.397       .  A
C349        H353   1.083       .  S
C350        O354   1.373       .  S
O352        H356   0.991       .  S
O354        H355   0.993       .  S
C357        C358   1.403       .  A
C357        C362   1.401       .  A
C358        C359   1.403       .  A
C358        H363   1.083       .  S
C359        C360   1.411       .  A
C359        O364   1.371       .  S
C360        C361   1.412       .  A
C361        C362   1.404       .  A
C361        H365   1.083       .  S
C362        O366   1.371       .  S
O364        H368   0.992       .  S
O366        H367   0.991       .  S
C369        C370   1.408       .  A
C369        C374   1.406       .  A
C370        C371   1.403       .  A
C370        H375   1.084       .  S
C371        C372   1.407       .  A
C371        O376   1.372       .  S
C372        C373   1.411       .  A
C373        C374   1.407       .  A
C373        H377   1.083       .  S
C374        O378   1.371       .  S
O376        H380   0.992       .  S
O378        H379   0.991       .  S
C381        C382   1.406       .  A
C381        C386   1.408       .  A
C382        C383   1.401       .  A
C382        H387   1.084       .  S
C383        C384   1.407       .  A
C383        O388   1.371       .  S
C384        C385   1.407       .  A
C385        C386   1.402       .  A
C385        H389   1.084       .  S
C386        O390   1.371       .  S
O388        H392   0.992       .  S
O390        H391   0.992       .  S
C393        C394   1.404   1_655  A
C393        C398   1.410       .  A
C394        C395   1.399   1_455  A
C394        H399   1.083       .  S
C395        C396   1.407       .  A
C395        O400   1.372   1_655  S
C396        C397   1.405       .  A
C397        C398   1.409       .  A
C397        H401   1.083       .  S
C398        O402   1.371       .  S
O400        H404   0.992       .  S
O402        H403   0.992       .  S
C405        C406   1.406       .  A
C405        C410   1.409       .  A
C406        C407   1.411       .  A
C406        H411   1.083       .  S
C407        C408   1.410       .  A
C407        O412   1.371       .  S
C408        C409   1.401       .  A
C409        C410   1.396       .  A
C409        H413   1.084       .  S
C410        O414   1.373       .  S
O412        H416   0.992       .  S
O414        H415   0.992       .  S
C417        C418   1.405       .  A
C417        C422   1.410       .  A
C418        C419   1.393       .  A
C418        H423   1.083       .  S
C419        C420   1.401       .  A
C419        O424   1.372       .  S
C420        C421   1.402       .  A
C421        C422   1.400       .  A
C421        H425   1.084       .  S
C422        O426   1.371       .  S
O424        H428   0.992       .  S
O426        H427   0.992       .  S
C429        C430   1.405       .  A
C429        C434   1.415       .  A
C430        C431   1.407       .  A
C430        H435   1.083       .  S
C431        C432   1.412       .  A
C431        O436   1.372       .  S
C432        C433   1.401       .  A
C433        C434   1.403       .  A
C433        H437   1.083       .  S
C434        O438   1.372       .  S
O436        H440   0.993       .  S
O438        H439   0.993       .  S
C441        C442   1.401       .  A
C441        C446   1.404       .  A
C442        C443   1.396       .  A
C442        H447   1.084       .  S
C443        C444   1.413       .  A
C443        O448   1.371       .  S
C444        C445   1.410       .  A
C445        C446   1.406       .  A
C445        H449   1.083       .  S
C446        O450   1.371       .  S
O448        H452   0.991       .  S
O450        H451   0.992       .  S
C453        C454   1.407       .  A
C453        C458   1.404       .  A
C454        C455   1.407       .  A
C454        H459   1.084       .  S
C455        C456   1.410       .  A
C455        O460   1.371       .  S
C456        C457   1.411       .  A
C457        C458   1.402       .  A
C457        H461   1.082       .  S
C458        O462   1.372       .  S
O460        H464   0.992       .  S
O462        H463   0.992       .  S
C465        C466   1.411       .  A
C465        C470   1.411       .  A
C466        C467   1.404       .  A
C466        H471   1.083       .  S
C467        C468   1.410       .  A
C467        O472   1.370       .  S
C468        C469   1.408       .  A
C469        C470   1.399       .  A
C469        H473   1.083       .  S
C470        O474   1.367       .  S
O472        H476   0.992       .  S
O474        H475   0.992       .  S
C477        C478   1.406   1_565  A
C477        C482   1.403       .  A
C478        C479   1.411   1_545  A
C478        H483   1.083       .  S
C479        C480   1.413       .  A
C479        O484   1.370       .  S
C480        C481   1.408       .  A
C481        C482   1.393       .  A
C481        H485   1.083       .  S
C482        O486   1.372       .  S
O484        H488   0.991   1_565  S
O486        H487   0.992       .  S
C489        C490   1.405       .  A
C489        C494   1.421       .  A
C490        C491   1.400       .  A
C490        H495   1.082       .  S
C491        C492   1.411       .  A
C491        O496   1.372       .  S
C492        C493   1.400       .  A
C493        C494   1.408       .  A
C493        H497   1.083       .  S
C494        O498   1.371       .  S
O496        H500   0.990       .  S
O498        H499   0.992       .  S
C501        C502   1.401       .  A
C501        C506   1.412       .  A
C502        C503   1.402       .  A
C502        H507   1.084       .  S
C503        C504   1.409       .  A
C503        O508   1.372       .  S
C504        C505   1.395       .  A
C505        C506   1.393       .  A
C505        H509   1.084       .  S
C506        O510   1.372       .  S
O508        H512   0.992       .  S
O510        H511   0.992       .  S
C513        C514   1.400       .  A
C513        C518   1.407       .  A
C514        C515   1.401       .  A
C514        H519   1.083       .  S
C515        C516   1.420       .  A
C515        O520   1.370       .  S
C516        C517   1.410       .  A
C517        C518   1.406       .  A
C517        H521   1.082       .  S
C518        O522   1.371       .  S
O520        H524   0.992       .  S
O522        H523   0.992       .  S
C525        C526   1.409       .  A
C525        C530   1.406       .  A
C526        C527   1.403       .  A
C526        H531   1.083       .  S
C527        C528   1.409       .  A
C527        O532   1.370       .  S
C528        C529   1.410       .  A
C529        C530   1.401       .  A
C529        H533   1.084       .  S
C530        O534   1.371       .  S
O532        H536   0.991       .  S
O534        H535   0.991       .  S
