geometry optimzed in LAMMPS
_audit_creation_date              2020-11-30 
_audit_creation_method            'lammps2cif' 
_symmetry_space_group_name_H-M    'P1' 
_symmetry_Int_Tables_number       1 
_symmetry_cell_setting            triclinic 
loop_ 
_symmetry_equiv_pos_as_xyz 
  x,y,z 
_cell_length_a                    31.7856376 
_cell_length_b                    32.08098384189515 
_cell_length_c                    31.765206865798902 
_cell_angle_alpha                 89.94121461281445 
_cell_angle_beta                  90.07966643384765 
_cell_angle_gamma                 89.98695187565731 
loop_ 
_atom_site_label 
_atom_site_type_symbol 
_atom_site_fract_x 
_atom_site_fract_y 
_atom_site_fract_z 
_atom_site_charge 
C1          C  0.32946431  0.67510396  0.16422783     0.86000
C2          C  0.36056918  0.64777663  0.19109187    -0.54200
C3          C  0.38628890  0.62307538  0.16719295     0.08900
C4          C  0.37773096  0.62763478  0.12020533     0.19900
C5          C  0.35844597  0.69922713  0.13235973    -0.55000
C6          C  0.38355413  0.67344790  0.10888851     0.09000
C7          C  0.30546604  0.64266505  0.13604765    -0.54500
C8          C  0.33145607  0.61770340  0.11364473     0.09600
H9          H  0.36172672  0.64806479  0.22524069     0.14100
H10         H  0.39798579  0.60714926  0.10115666    -0.00100
H11         H  0.35823460  0.73283450  0.12843824     0.14400
H12         H  0.27183059  0.63854653  0.13336804     0.14200
C13         C  0.60337550  0.38100555  0.17802757     0.86000
C14         C  0.57637635  0.35640791  0.14518830    -0.54200
C15         C  0.55447097  0.38167312  0.11858682     0.08900
C16         C  0.56008394  0.42786225  0.12851822     0.19900
C17         C  0.63048877  0.41193591  0.15138952    -0.55000
C18         C  0.60715073  0.43672933  0.12557727     0.09000
C19         C  0.57068977  0.40951173  0.20139059    -0.54500
C20         C  0.54765635  0.43366565  0.17447908     0.09600
H21         H  0.57574623  0.32266686  0.14271928     0.14100
H22         H  0.54146903  0.44801982  0.10731919    -0.00100
H23         H  0.66455698  0.41378824  0.15299981     0.14400
H24         H  0.56526584  0.41048167  0.23498203     0.14200
C25         C  0.61437990  0.66055779  0.17387334     0.86000
C26         C  0.63999909  0.63271998  0.14240309    -0.54200
C27         C  0.61505268  0.60999807  0.11589209     0.08900
C28         C  0.56821968  0.61647466  0.12422557     0.19900
C29         C  0.58402243  0.68676928  0.14529432    -0.55000
C30         C  0.55945423  0.66295623  0.11953351     0.09000
C31         C  0.58507482  0.62880849  0.19704878    -0.54500
C32         C  0.56119237  0.60601783  0.17042758     0.09600
H33         H  0.67410412  0.63153888  0.14125801     0.14100
H34         H  0.54821701  0.59742513  0.10327779    -0.00100
H35         H  0.58196190  0.72053200  0.14609609     0.14400
H36         H  0.58330547  0.62235682  0.23022271     0.14200
C37         C  0.32173500  0.39082132  0.16810047     0.86000
C38         C  0.35406850  0.36484700  0.14190395    -0.54200
C39         C  0.38051645  0.38880383  0.11850032     0.08900
C40         C  0.37122694  0.43522797  0.12249940     0.19900
C41         C  0.34852271  0.42266987  0.19371040    -0.55000
C42         C  0.37408285  0.44622715  0.16911851     0.09000
C43         C  0.29828076  0.41838201  0.13427651    -0.54500
C44         C  0.32530333  0.44147619  0.11012558     0.09600
H45         H  0.35601508  0.33106682  0.14252089     0.14100
H46         H  0.39288879  0.45404531  0.10312832    -0.00100
H47         H  0.34669134  0.42650150  0.22761643     0.14400
H48         H  0.26462687  0.41975992  0.12934129     0.14200
O49         O  0.50926781  0.57057448  0.21512241    -0.72300
O50         O  0.42203045  0.48548382  0.21563519    -0.72500
O51         O  0.50853286  0.48495648  0.21732847    -0.72300
O52         O  0.42239645  0.57197494  0.21408434    -0.72300
O53         O  0.44245314  0.57988165  0.14957994    -0.72300
O54         O  0.49101965  0.47430864  0.15232539    -0.72300
O55         O  0.41353357  0.50353864  0.15054060    -0.72300
O56         O  0.51946846  0.55067139  0.15076005    -0.72500
V57         V  0.46548993  0.52830463  0.21602500     1.35200
V58         V  0.46652059  0.52708603  0.15179170     1.35200
C59         C  0.52982669  0.57379853  0.18077798     0.77000
C60         C  0.40296275  0.48053089  0.18064280     0.77000
C61         C  0.51362306  0.46439158  0.18334418     0.76900
C62         C  0.41896609  0.59152462  0.17918851     0.76900
C63         C  0.32786143  0.38907343  0.88496239     0.86000
C64         C  0.30428886  0.42315745  0.91130527    -0.54200
C65         C  0.33052269  0.44620452  0.93552646     0.08900
C66         C  0.37635019  0.43313916  0.93189708     0.19900
C67         C  0.36201759  0.41427138  0.85994755    -0.55000
C68         C  0.38793673  0.43705006  0.88549399     0.09000
C69         C  0.35312514  0.36308270  0.91811034    -0.54500
C70         C  0.37841920  0.38691423  0.94292756     0.09600
H71         H  0.27107225  0.43025726  0.91055529     0.14100
H72         H  0.39676875  0.45214663  0.95236460    -0.00100
H73         H  0.36529311  0.41368257  0.82595113     0.14400
H74         H  0.35075788  0.32949781  0.92157484     0.14200
C75         C  0.61291198  0.37760320  0.88834016     0.86000
C76         C  0.58707431  0.41209787  0.86484981    -0.54200
C77         C  0.56398983  0.43615415  0.89085278     0.08900
C78         C  0.56817340  0.42406515  0.93687508     0.19900
C79         C  0.63923852  0.40268557  0.92179054    -0.55000
C80         C  0.61488985  0.42676179  0.94776986     0.09000
C81         C  0.57940817  0.35303541  0.91494980    -0.54500
C82         C  0.55556291  0.37831050  0.94025102     0.09600
H83         H  0.58737318  0.41904910  0.83159684     0.14100
H84         H  0.54865997  0.44439070  0.95687176    -0.00100
H85         H  0.67325998  0.40134427  0.92436104     0.14400
H86         H  0.57474364  0.31958110  0.91304817     0.14200
C87         C  0.62597858  0.65932142  0.88946866     0.86000
C88         C  0.59354123  0.63264874  0.86379841    -0.54200
C89         C  0.56713574  0.60986060  0.88864572     0.08900
C90         C  0.57681762  0.61462078  0.93539855     0.19900
C91         C  0.59863326  0.68498490  0.92115967    -0.55000
C92         C  0.57294051  0.66090860  0.94541940     0.09000
C93         C  0.64963253  0.62640397  0.91766204    -0.54500
C94         C  0.62291767  0.60260111  0.94127062     0.09600
H95         H  0.59122073  0.63282967  0.82970528     0.14100
H96         H  0.55570798  0.59558896  0.95514202    -0.00100
H97         H  0.59946382  0.71871833  0.92363472     0.14400
H98         H  0.68324256  0.62115506  0.91841963     0.14200
C99         C  0.33903936  0.66942249  0.87719703     0.86000
C100        C  0.31237190  0.64390474  0.90982215    -0.54200
C101        C  0.33618494  0.62052645  0.93667344     0.08900
C102        C  0.38301991  0.62386914  0.92746562     0.19900
C103        C  0.37146280  0.69451797  0.90477630    -0.55000
C104        C  0.39486853  0.66976571  0.93101142     0.09000
C105        C  0.36648121  0.63547815  0.85445862    -0.54500
C106        C  0.38914697  0.61164056  0.88165065     0.09600
H107        H  0.27828430  0.64490702  0.91160483     0.14100
H108        H  0.40166642  0.60397862  0.94873258    -0.00100
H109        H  0.37538759  0.72808665  0.90321804     0.14400
H110        H  0.36812511  0.62910411  0.82123683     0.14200
O111        O  0.28347728  0.49262973  0.06871703    -0.72300
O112        O  0.28849490  0.57411479  0.97713430    -0.72500
O113        O  0.28575258  0.48838937  0.98221383    -0.72300
O114        O  0.28660641  0.57868931  0.06397335    -0.72300
O115        O  0.35081106  0.55933781  0.07574208    -0.72300
O116        O  0.35158356  0.50363765  0.97392727    -0.72300
O117        O  0.35325665  0.58209417  0.99644027    -0.72300
O118        O  0.34865356  0.48084080  0.05320257    -0.72500
V119        V  0.28572852  0.53352530  0.02304391     1.35200
V120        V  0.35000034  0.53152076  0.02480991     1.35200
C121        C  0.31714463  0.47189455  0.07536992     0.77000
C122        C  0.32383277  0.59230226  0.97199859     0.77000
C123        C  0.32069450  0.48145530  0.96382719     0.76900
C124        C  0.32092506  0.58339285  0.08430406     0.76900
O125        O  0.43628714  0.71510558  0.06887142    -0.72300
O126        O  0.52315800  0.70840878  0.98179645    -0.72500
O127        O  0.43583234  0.71382056  0.98139133    -0.72300
O128        O  0.52315619  0.70945663  0.06860601    -0.72300
O129        O  0.50103911  0.64645208  0.07868597    -0.72300
O130        O  0.45058631  0.64862673  0.97324257    -0.72300
O131        O  0.52811038  0.64376339  0.00065352    -0.72300
O132        O  0.42294761  0.65142686  0.05125938    -0.72500
V133        V  0.47959705  0.71210605  0.02510437     1.35200
V134        V  0.47565120  0.64861711  0.02596930     1.35200
C135        C  0.41434399  0.68219237  0.07424774     0.77000
C136        C  0.54118938  0.67302717  0.97780281     0.77000
C137        C  0.42915438  0.67958946  0.96192998     0.76900
C138        C  0.52599709  0.67513913  0.08885744     0.76900
O139        O  0.65632782  0.47246377  0.07690069    -0.72300
O140        O  0.66473890  0.56072921  0.99222820    -0.72500
O141        O  0.66007027  0.55840547  0.07898554    -0.72300
O142        O  0.66113385  0.47429738  0.98953081    -0.72300
O143        O  0.59542473  0.46722193  0.00516464    -0.72300
O144        O  0.59686985  0.57095941  0.05698600    -0.72300
O145        O  0.60008848  0.54468777  0.97864382    -0.72300
O146        O  0.59195543  0.49355646  0.08312293    -0.72500
V147        V  0.66108028  0.51637107  0.03441086     1.35200
V148        V  0.59709121  0.51906951  0.03097490     1.35200
C149        C  0.62064078  0.46938940  0.09514430     0.77000
C150        C  0.63142319  0.56721528  0.97066754     0.77000
C151        C  0.62621999  0.57966775  0.08206974     0.76900
C152        C  0.62603547  0.45597986  0.98288579     0.76900
O153        O  0.51218587  0.33569251  0.98968230    -0.72300
O154        O  0.41961580  0.34169244  0.07072950    -0.72500
O155        O  0.42518505  0.34001409  0.98397718    -0.72300
O156        O  0.50594835  0.33766512  0.07685059    -0.72300
O157        O  0.51995000  0.40078716  0.05736734    -0.72300
O158        O  0.41790782  0.40480274  0.00126942    -0.72300
O159        O  0.44065831  0.40514846  0.08029815    -0.72300
O160        O  0.49693918  0.40030352  0.97790193    -0.72500
V161        V  0.46575992  0.33826576  0.03028053     1.35200
V162        V  0.46888632  0.40175603  0.02918413     1.35200
C163        C  0.51947445  0.36924778  0.96922542     0.77000
C164        C  0.41547984  0.37644922  0.08987458     0.77000
C165        C  0.40707937  0.37508681  0.97801204     0.76900
C166        C  0.52692480  0.37116917  0.08228069     0.76900
O167        O  0.43163676  0.48379673  0.84088667    -0.72300
O168        O  0.52551164  0.56264511  0.84287135    -0.72500
O169        O  0.51812297  0.47726134  0.84441480    -0.72300
O170        O  0.43877479  0.56953788  0.83945903    -0.72300
O171        O  0.42626054  0.55382286  0.90450525    -0.72300
O172        O  0.52621122  0.49485162  0.90977653    -0.72300
O173        O  0.50632218  0.57410449  0.90715011    -0.72300
O174        O  0.44653295  0.47476282  0.90669926    -0.72500
V175        V  0.47853917  0.52332235  0.84157964     1.35200
V176        V  0.47633323  0.52443181  0.90592717     1.35200
C177        C  0.42401782  0.46521758  0.87561398     0.77000
C178        C  0.53110964  0.58217837  0.87742229     0.77000
C179        C  0.53610084  0.47135647  0.87984545     0.76900
C180        C  0.41821148  0.57638233  0.87320913     0.76900
C181        C  0.61076199  0.17182491  0.67371305     0.86000
C182        C  0.57972879  0.14217393  0.69749042    -0.54200
C183        C  0.55779151  0.11708031  0.67145046     0.08900
C184        C  0.56648576  0.12504019  0.62515159     0.19900
C185        C  0.63745786  0.14229593  0.64463901    -0.55000
C186        C  0.61342416  0.11741452  0.61924485     0.09000
C187        C  0.58132660  0.19654516  0.64258013    -0.54500
C188        C  0.55767447  0.17118324  0.61723182     0.09600
H189        H  0.57343613  0.14072304  0.73072043     0.14100
H190        H  0.54716792  0.10513944  0.60454256    -0.00100
H191        H  0.67154364  0.14045707  0.64549649     0.14400
H192        H  0.57874174  0.23026790  0.64186142     0.14200
C193        C  0.61458000  0.16230864  0.38227175     0.86000
C194        C  0.64032848  0.13343425  0.41295370    -0.54200
C195        C  0.61535057  0.11070777  0.43955323     0.08900
C196        C  0.56860099  0.11827127  0.43169726     0.19900
C197        C  0.58370222  0.13186782  0.35888137    -0.55000
C198        C  0.55925001  0.10941705  0.38551016     0.09000
C199        C  0.58552510  0.18863338  0.41179113    -0.54500
C200        C  0.56207258  0.16481000  0.43833566     0.09600
H201        H  0.67443090  0.13276112  0.41452053     0.14100
H202        H  0.54854518  0.09891956  0.45213543    -0.00100
H203        H  0.58000696  0.12829833  0.32522244     0.14400
H204        H  0.58483786  0.22246253  0.41238251     0.14200
C205        C  0.32805227  0.17572890  0.66322266     0.86000
C206        C  0.35643603  0.19731773  0.62942264    -0.54200
C207        C  0.38051371  0.17015164  0.60761869     0.08900
C208        C  0.37403816  0.12498613  0.62064987     0.19900
C209        C  0.30236754  0.14265522  0.63721378    -0.55000
C210        C  0.32733282  0.11543223  0.61550573     0.09000
C211        C  0.35912042  0.14900901  0.69074602    -0.54500
C212        C  0.38349287  0.12241125  0.66758057     0.09600
H213        H  0.35673288  0.22977695  0.62073620     0.14100
H214        H  0.39391275  0.10384491  0.60191360    -0.00100
H215        H  0.26828649  0.14068721  0.63687195     0.14400
H216        H  0.36154705  0.15141365  0.72474099     0.14200
C217        C  0.32969842  0.16088996  0.38185352     0.86000
C218        C  0.36135226  0.18696419  0.40889509    -0.54200
C219        C  0.38619457  0.16311810  0.43433487     0.08900
C220        C  0.37603689  0.11678805  0.43123399     0.19900
C221        C  0.35785673  0.12800860  0.35846440    -0.55000
C222        C  0.38186118  0.10479533  0.38521180     0.09000
C223        C  0.30422018  0.13414598  0.41437099    -0.54500
C224        C  0.32925632  0.11163565  0.44089222     0.09600
H225        H  0.36429413  0.22062581  0.40704431     0.14100
H226        H  0.39598309  0.09795870  0.45242139    -0.00100
H227        H  0.35831233  0.12216522  0.32494581     0.14400
H228        H  0.27013999  0.13362265  0.41634714     0.14200
O229        O  0.42683747  0.21014780  0.48123694    -0.72300
O230        O  0.51790627  0.21415872  0.56461496    -0.72500
O231        O  0.51352339  0.21117112  0.47722728    -0.72300
O232        O  0.43073970  0.21307828  0.56755254    -0.72300
O233        O  0.42181336  0.14788165  0.55227227    -0.72300
O234        O  0.52438760  0.14784768  0.49790405    -0.72300
O235        O  0.50052940  0.15016159  0.57660496    -0.72300
O236        O  0.44545372  0.14573097  0.47356503    -0.72500
V237        V  0.47233835  0.21257033  0.52269085     1.38400
V238        V  0.47311268  0.14896044  0.52502673     1.35200
C239        C  0.42141221  0.17508134  0.46301633     0.77000
C240        C  0.52363868  0.18065325  0.58572520     0.77000
C241        C  0.53324132  0.17683235  0.47291190     0.76900
C242        C  0.41126377  0.17885024  0.57385755     0.76900
C243        C  0.62051113  0.88322703  0.39130804     0.86000
C244        C  0.58970703  0.91166884  0.36551750    -0.54200
C245        C  0.56423452  0.93543114  0.39012292     0.08900
C246        C  0.57169267  0.92831406  0.43697937     0.19900
C247        C  0.64421671  0.91493062  0.42094164    -0.55000
C248        C  0.61776922  0.93830386  0.44493761     0.09000
C249        C  0.59137226  0.85750563  0.42177356    -0.54500
C250        C  0.56600304  0.88200354  0.44632631     0.09600
H251        H  0.58932591  0.91368829  0.33139895     0.14100
H252        H  0.55042250  0.94758460  0.45610159    -0.00100
H253        H  0.67751546  0.92114303  0.42186678     0.14400
H254        H  0.59200029  0.82377320  0.42427197     0.14200
C255        C  0.33129211  0.87790744  0.39359794     0.86000
C256        C  0.30606370  0.90869769  0.42217395    -0.54200
C257        C  0.33108471  0.93496027  0.44460991     0.08900
C258        C  0.37786185  0.92648973  0.43797013     0.19900
C259        C  0.36138738  0.90619861  0.36692878    -0.55000
C260        C  0.38628927  0.93133188  0.39102168     0.09000
C261        C  0.36161580  0.85434016  0.42477839    -0.54500
C262        C  0.38648208  0.88065783  0.44750840     0.09600
H263        H  0.27197142  0.91045973  0.42308498     0.14100
H264        H  0.39714012  0.94734253  0.45774097    -0.00100
H265        H  0.36346280  0.90522766  0.33283860     0.14400
H266        H  0.36496922  0.82094144  0.42786512     0.14200
C267        C  0.33188751  0.88621914  0.67594019     0.86000
C268        C  0.36357932  0.86175755  0.64764872    -0.54200
C269        C  0.38649019  0.88686927  0.62186193     0.08900
C270        C  0.37638333  0.93294852  0.62782129     0.19900
C271        C  0.35934004  0.91898989  0.70022621    -0.55000
C272        C  0.38225857  0.94362011  0.67421384     0.09000
C273        C  0.30521683  0.91336637  0.64451117    -0.54500
C274        C  0.32946518  0.93763044  0.61878818     0.09600
H275        H  0.36628080  0.82802831  0.64719564     0.14100
H276        H  0.39637387  0.95279733  0.60777993    -0.00100
H277        H  0.35962839  0.92440695  0.73381323     0.14400
H278        H  0.27113916  0.91260068  0.64248362     0.14200
C279        C  0.61388315  0.89149218  0.68331069     0.86000
C280        C  0.58508536  0.86492578  0.65339201    -0.54200
C281        C  0.56078332  0.88854807  0.62713482     0.08900
C282        C  0.56789170  0.93513709  0.63315883     0.19900
C283        C  0.63945073  0.92057646  0.65278017    -0.55000
C284        C  0.61465545  0.94290840  0.62578797     0.09000
C285        C  0.58239707  0.92185736  0.70624147    -0.54500
C286        C  0.55790763  0.94412920  0.67908814     0.09600
H287        H  0.58391561  0.83110958  0.65361551     0.14100
H288        H  0.54857143  0.95462949  0.61214916    -0.00100
H289        H  0.67355532  0.92172956  0.65163809     0.14400
H290        H  0.57813289  0.92556079  0.73965926     0.14200
O291        O  0.66133281  0.98001513  0.49461434    -0.72300
O292        O  0.65982994  0.07531831  0.57188980    -0.72500
O293        O  0.66033617  0.98945597  0.58195786    -0.72300
O294        O  0.66080901  0.06531236  0.48472346    -0.72300
O295        O  0.59529953  0.07472313  0.49993715    -0.72300
O296        O  0.59539137  0.97888951  0.56508663    -0.72300
O297        O  0.59464396  0.05875245  0.58098081    -0.72300
O298        O  0.59578905  0.99495613  0.48422921    -0.72500
V299        V  0.66085839  0.02747849  0.53334952     1.35200
V300        V  0.59651811  0.02686744  0.53260237     1.35200
C301        C  0.62691655  0.97271954  0.47511968     0.77000
C302        C  0.62480698  0.08226362  0.59030516     0.77000
C303        C  0.62557456  0.97078881  0.58932617     0.76900
C304        C  0.62587348  0.08321428  0.47637869     0.76900
O305        O  0.42818011  0.98730725  0.71924707    -0.72300
O306        O  0.50826280  0.07914534  0.71687007    -0.72500
O307        O  0.42196246  0.07388857  0.71553404    -0.72300
O308        O  0.51483440  0.99371809  0.72105813    -0.72300
O309        O  0.49868367  0.98058180  0.65626836    -0.72300
O310        O  0.44079190  0.08092746  0.65053639    -0.72300
O311        O  0.51973572  0.05905231  0.65281306    -0.72300
O312        O  0.41900312  0.00226504  0.65348993    -0.72500
V313        V  0.46818238  0.03348378  0.71859878     1.35200
V314        V  0.46944929  0.03070398  0.65435987     1.35200
C315        C  0.40981679  0.97965153  0.68433706     0.77000
C316        C  0.52816910  0.08352179  0.68232269     0.77000
C317        C  0.41718046  0.09223479  0.68010926     0.76900
C318        C  0.52199068  0.97314115  0.68743018     0.76900
O319        O  0.34821790  0.07492989  0.50084813    -0.72300
O320        O  0.34843791  0.97569870  0.56016387    -0.72500
O321        O  0.34937712  0.99543817  0.48063571    -0.72300
O322        O  0.34705691  0.05482252  0.58080215    -0.72300
O323        O  0.28242209  0.07192311  0.56861413    -0.72300
O324        O  0.28471198  0.97718424  0.49095410    -0.72300
O325        O  0.28345537  0.98557819  0.57740427    -0.72300
O326        O  0.28383093  0.06337249  0.48213672    -0.72500
V327        V  0.34723239  0.02526015  0.53062729     1.35200
V328        V  0.28309572  0.02451701  0.52976561     1.35200
C329        C  0.31825558  0.08319786  0.47643977     0.77000
C330        C  0.31819038  0.96646330  0.58370301     0.77000
C331        C  0.31968759  0.97092917  0.47220851     0.76900
C332        C  0.31672638  0.07880795  0.58839584     0.76900
O333        O  0.51852482  0.05948731  0.34180881    -0.72300
O334        O  0.42686419  0.97823379  0.34396542    -0.72500
O335        O  0.43152060  0.06393168  0.34168868    -0.72300
O336        O  0.51392591  0.97348927  0.34390610    -0.72300
O337        O  0.52378674  0.99263708  0.40839156    -0.72300
O338        O  0.42196382  0.04854699  0.40733908    -0.72300
O339        O  0.44474791  0.97019602  0.40917287    -0.72300
O340        O  0.50122854  0.07089630  0.40661094    -0.72500
V341        V  0.47272431  0.01879933  0.34245574     1.35200
V342        V  0.47291517  0.02051317  0.40676848     1.35200
C343        C  0.52459146  0.07954719  0.37600716     0.77000
C344        C  0.42106308  0.96006261  0.37923681     0.77000
C345        C  0.41199581  0.07051484  0.37614412     0.76900
C346        C  0.53357286  0.96878054  0.37867296     0.76900
O347        O  0.52283840  0.84154053  0.57733901    -0.72300
O348        O  0.42978574  0.83777653  0.49640457    -0.72500
O349        O  0.51715242  0.83775093  0.48962599    -0.72300
O350        O  0.43629532  0.84142236  0.58286730    -0.72300
O351        O  0.42630392  0.90532742  0.56348835    -0.72300
O352        O  0.52637810  0.90278905  0.50407084    -0.72300
O353        O  0.44626470  0.90190757  0.48360959    -0.72300
O354        O  0.50558800  0.90640360  0.58348378    -0.72500
V355        V  0.47662048  0.83927998  0.53645882     1.35200
V356        V  0.47622169  0.90293028  0.53360263     1.35200
C357        C  0.52828442  0.87669453  0.59542873     0.77000
C358        C  0.42256957  0.87147037  0.47620684     0.77000
C359        C  0.53618101  0.87199085  0.48174600     0.76900
C360        C  0.41695888  0.87595444  0.58792490     0.76900
C361        C  0.83104967  0.38363334  0.66410895     0.86000
C362        C  0.86378218  0.36108940  0.63474845    -0.54200
C363        C  0.88629973  0.38805913  0.61053575     0.08900
C364        C  0.87488524  0.43344884  0.61842129     0.19900
C365        C  0.85797396  0.41538074  0.68990912    -0.55000
C366        C  0.88057497  0.44189096  0.66538615     0.09000
C367        C  0.80418099  0.41076822  0.63287302    -0.54500
C368        C  0.82813350  0.43649268  0.60828630     0.09600
H369        H  0.86826579  0.32786495  0.63146791     0.14100
H370        H  0.89411514  0.45496715  0.59943103    -0.00100
H371        H  0.85866021  0.41670493  0.72405061     0.14400
H372        H  0.77030455  0.40817141  0.62944182     0.14200
C373        C  0.83608341  0.38172134  0.37617239     0.86000
C374        C  0.86678475  0.41011602  0.34993535    -0.54200
C375        C  0.89044840  0.43630494  0.37443195     0.08900
C376        C  0.87995644  0.43226780  0.42100660     0.19900
C377        C  0.86555091  0.35959243  0.40902502    -0.55000
C378        C  0.88874197  0.38687812  0.43203788     0.09000
C379        C  0.80916721  0.41256432  0.40335835    -0.54500
C380        C  0.83280778  0.43947521  0.42668300     0.09600
H381        H  0.87053915  0.40800423  0.31605243     0.14100
H382        H  0.89835228  0.45402492  0.44047083    -0.00100
H383        H  0.86926552  0.32642745  0.41367280     0.14400
H384        H  0.77502383  0.41269657  0.40399598     0.14200
C385        C  0.82904713  0.66208865  0.37476955     0.86000
C386        C  0.85921186  0.68793665  0.40376068    -0.54200
C387        C  0.88388802  0.66366815  0.42906461     0.08900
C388        C  0.87556790  0.61720251  0.42316671     0.19900
C389        C  0.85861481  0.63125303  0.35055775    -0.55000
C390        C  0.88253429  0.60752756  0.37665370     0.09000
C391        C  0.80373304  0.63349047  0.40567390    -0.54500
C392        C  0.82885199  0.61083982  0.43190096     0.09600
H393        H  0.86054880  0.72174320  0.40409101     0.14100
H394        H  0.89554003  0.59763542  0.44366229    -0.00100
H395        H  0.86023373  0.62691831  0.31686888     0.14400
H396        H  0.76964798  0.63246755  0.40737587     0.14200
C397        C  0.82080401  0.66250854  0.66552837     0.86000
C398        C  0.85316411  0.63571595  0.69087223    -0.54200
C399        C  0.87937955  0.61314892  0.66603098     0.08900
C400        C  0.86948613  0.61778228  0.61927567     0.19900
C401        C  0.84783851  0.68828280  0.63359484    -0.55000
C402        C  0.87304647  0.66406207  0.60893482     0.09000
C403        C  0.79678158  0.63003235  0.63704206    -0.54500
C404        C  0.82326260  0.60637735  0.61289662     0.09600
H405        H  0.85585150  0.63592650  0.72494914     0.14100
H406        H  0.89072516  0.59847413  0.59996963    -0.00100
H407        H  0.84659583  0.72197950  0.63073256     0.14400
H408        H  0.76305590  0.62574176  0.63566297     0.14200
O409        O  0.01775344  0.65023475  0.49804091    -0.72300
O410        O  0.91447847  0.64575674  0.55184808    -0.72500
O411        O  0.93938643  0.64607304  0.47315571    -0.72300
O412        O  0.99300532  0.64977679  0.57688817    -0.72300
O413        O  0.00712427  0.71501400  0.56722924    -0.72300
O414        O  0.91899441  0.70991635  0.48115921    -0.72300
O415        O  0.92034546  0.71081003  0.56864946    -0.72300
O416        O  0.00531036  0.71419359  0.48015602    -0.72500
V417        V  0.96608441  0.64908683  0.52501024     1.35200
V418        V  0.96288072  0.71277939  0.52435006     1.35200
C419        C  0.02630850  0.68074793  0.47476547     0.77000
C420        C  0.90268629  0.67557716  0.57455490     0.77000
C421        C  0.91577419  0.67530993  0.46153017     0.76900
C422        C  0.01430143  0.68115591  0.58718261     0.76900
O423        O  0.91992588  0.50006651  0.64761783    -0.72300
O424        O  0.02109437  0.55720713  0.65117737    -0.72500
O425        O  0.99923620  0.47833150  0.65061840    -0.72300
O426        O  0.94119919  0.57868405  0.64848604    -0.72300
O427        O  0.92126624  0.56709518  0.71256929    -0.72300
O428        O  0.01609751  0.48912763  0.71556085    -0.72300
O429        O  0.00796845  0.57525595  0.71536435    -0.72300
O430        O  0.92886402  0.48154006  0.71247086    -0.72500
V431        V  0.97043953  0.52856538  0.65046943     1.35200
V432        V  0.96857199  0.52824489  0.71456336     1.35200
C433        C  0.90995553  0.47622659  0.67730784     0.77000
C434        C  0.02854505  0.58137035  0.68136192     0.77000
C435        C  0.02299161  0.46979192  0.68110937     0.76900
C436        C  0.91586138  0.58642630  0.67780305     0.76900
O437        O  0.02063510  0.48341523  0.33352277    -0.72300
O438        O  0.93443713  0.57068462  0.33221267    -0.72500
O439        O  0.02128011  0.57012842  0.33509157    -0.72300
O440        O  0.93285182  0.48488623  0.33009569    -0.72300
O441        O  0.95004587  0.47351087  0.39489575    -0.72300
O442        O  0.00007601  0.57828640  0.39921787    -0.72300
O443        O  0.92248929  0.55048640  0.39613641    -0.72300
O444        O  0.02778087  0.50179789  0.39847754    -0.72500
V445        V  0.97740371  0.52719915  0.33214464     1.35200
V446        V  0.97515023  0.52593167  0.39619494     1.35200
C447        C  0.03958467  0.47892576  0.36879043     0.77000
C448        C  0.91329936  0.57434154  0.36620508     0.77000
C449        C  0.02422023  0.58968936  0.37004618     0.76900
C450        C  0.92657425  0.46470678  0.36419494     0.76900
O451        O  0.93077459  0.34460342  0.48199617    -0.72300
O452        O  0.02256922  0.34827265  0.56319619    -0.72500
O453        O  0.93622859  0.34552000  0.56880944    -0.72300
O454        O  0.01762216  0.34716487  0.47676563    -0.72300
O455        O  0.02323332  0.41285756  0.49075100    -0.72300
O456        O  0.92595950  0.41050187  0.55375718    -0.72300
O457        O  0.00606287  0.41331124  0.57066352    -0.72300
O458        O  0.94326657  0.41033564  0.47353576    -0.72500
V459        V  0.97673244  0.34633968  0.52267146     1.35200
V460        V  0.97463255  0.41038654  0.52213806     1.35200
C461        C  0.92238624  0.37882214  0.46335418     0.77000
C462        C  0.02887775  0.38321664  0.58116114     0.77000
C463        C  0.91691237  0.37957795  0.57618981     0.76900
C464        C  0.03512226  0.38219064  0.46940035     0.76900
O465        O  0.78059227  0.56722999  0.55995862    -0.72300
O466        O  0.78501727  0.47687744  0.47662266    -0.72500
O467        O  0.78203934  0.48168563  0.56438863    -0.72300
O468        O  0.78325991  0.56270603  0.47235128    -0.72300
O469        O  0.84733359  0.57425987  0.49222701    -0.72300
O470        O  0.84736564  0.47266823  0.54802682    -0.72300
O471        O  0.84961737  0.49622749  0.46887189    -0.72300
O472        O  0.84556158  0.55086729  0.57162224    -0.72500
V473        V  0.78226927  0.52212665  0.51825642     1.35200
V474        V  0.84640873  0.52346907  0.52018470     1.35200
C475        C  0.81437336  0.57298125  0.58113806     0.77000
C476        C  0.82025320  0.47252818  0.45765933     0.77000
C477        C  0.81697670  0.46341759  0.57154862     0.76900
C478        C  0.81770454  0.58254078  0.46734860     0.76900
C479        C  0.11587234  0.38975037  0.66673468     0.86000
C480        C  0.14092567  0.42207308  0.63948639    -0.54200
C481        C  0.11553077  0.44841916  0.61733233     0.08900
C482        C  0.06889357  0.43876417  0.62332355     0.19900
C483        C  0.08465219  0.41669999  0.69393008    -0.55000
C484        C  0.05940193  0.44216234  0.67013449     0.09000
C485        C  0.08699944  0.36689276  0.63411778    -0.54500
C486        C  0.06210879  0.39321713  0.61209406     0.09600
H487        H  0.17499201  0.42391269  0.63824386     0.14100
H488        H  0.04906165  0.45935591  0.60393454    -0.00100
H489        H  0.08196976  0.41436025  0.72790160     0.14400
H490        H  0.08533200  0.33382385  0.62817515     0.14200
C491        C  0.11071973  0.67589159  0.38580356     0.86000
C492        C  0.08122245  0.64722835  0.35872125    -0.54200
C493        C  0.05656355  0.62139597  0.38246629     0.08900
C494        C  0.06454445  0.62642237  0.42957553     0.19900
C495        C  0.08021496  0.69878305  0.41705246    -0.55000
C496        C  0.05663078  0.67198826  0.44035387     0.09000
C497        C  0.13621794  0.64542258  0.41448182    -0.54500
C498        C  0.11141610  0.61896712  0.43680371     0.09600
H499        H  0.08003996  0.64777345  0.32457486     0.14100
H500        H  0.04472194  0.60535939  0.44854227    -0.00100
H501        H  0.07780870  0.73201364  0.42201808     0.14400
H502        H  0.17031221  0.64477636  0.41644851     0.14200
C503        C  0.10542969  0.67646609  0.67067322     0.86000
C504        C  0.13204423  0.64995001  0.63890707    -0.54200
C505        C  0.10826076  0.62441581  0.61404017     0.08900
C506        C  0.06148313  0.62731280  0.62402837     0.19900
C507        C  0.07209388  0.69946015  0.64220674    -0.55000
C508        C  0.04882184  0.67279748  0.61807421     0.09000
C509        C  0.07879611  0.64377184  0.69593181    -0.54500
C510        C  0.05640850  0.61739066  0.67075627     0.09600
H511        H  0.16602738  0.65186072  0.63624049     0.14100
H512        H  0.04275740  0.60621599  0.60404367    -0.00100
H513        H  0.06645764  0.73268427  0.64124771     0.14400
H514        H  0.07859392  0.64139590  0.73001835     0.14200
C515        C  0.12432622  0.39160048  0.38533014     0.86000
C516        C  0.09259912  0.36698727  0.41364461    -0.54200
C517        C  0.06690671  0.39227512  0.43651414     0.08900
C518        C  0.07526522  0.43841020  0.42862979     0.19900
C519        C  0.09645403  0.42148634  0.35801446    -0.55000
C520        C  0.07075388  0.44628240  0.38140755     0.09000
C521        C  0.14790771  0.42135855  0.41714839    -0.54500
C522        C  0.12108941  0.44554017  0.44019775     0.09600
H523        H  0.09160933  0.33323984  0.41599739     0.14100
H524        H  0.05404928  0.45852075  0.44691274    -0.00100
H525        H  0.09734049  0.42276855  0.32387841     0.14400
H526        H  0.18146120  0.42258304  0.42258369     0.14200
O527        O  0.09376641  0.56115322  0.47617444    -0.72300
O528        O  0.09485624  0.50566877  0.57798514    -0.72500
O529        O  0.09109172  0.58397620  0.55554186    -0.72300
O530        O  0.09775489  0.48292274  0.49852144    -0.72300
O531        O  0.16251625  0.49614939  0.48259219    -0.72300
O532        O  0.15618408  0.57736601  0.57432255    -0.72300
O533        O  0.16059434  0.49095909  0.56953277    -0.72300
O534        O  0.15757777  0.58188800  0.48736398    -0.72500
V535        V  0.09545337  0.53345742  0.52709370     1.35200
V536        V  0.15960871  0.53664373  0.52852153     1.35200
C537        C  0.12307962  0.58565635  0.46704989     0.77000
C538        C  0.12578303  0.48352619  0.58813655     0.77000
C539        C  0.12058777  0.59516049  0.57945423     0.76900
C540        C  0.12913135  0.47512169  0.47570369     0.76900
C541        C  0.22507777  0.27649411  0.27852713    -0.03000
C542        C  0.72005145  0.27410110  0.27664371    -0.03000
C543        C  0.22255391  0.77870274  0.27841604    -0.03000
C544        C  0.22251381  0.28143760  0.77555081    -0.03000
C545        C  0.72544936  0.27827876  0.77619408    -0.03000
C546        C  0.72052428  0.77614089  0.27453822    -0.03000
C547        C  0.22129806  0.77760109  0.77880166    -0.03000
C548        C  0.11381623  0.16366339  0.17948549     0.86000
C549        C  0.08367481  0.13250043  0.20251425    -0.54200
C550        C  0.05976041  0.10980302  0.17575821     0.08900
C551        C  0.06727748  0.12032888  0.12962127     0.19900
C552        C  0.13903835  0.13553520  0.14783126    -0.55000
C553        C  0.11380757  0.11370475  0.12087196     0.09000
C554        C  0.08428422  0.19051006  0.15041416    -0.54500
C555        C  0.06033749  0.16702168  0.12361403     0.09600
H556        H  0.08173336  0.12621805  0.23572715     0.14100
H557        H  0.04680997  0.10115738  0.10928190    -0.00100
H558        H  0.17311364  0.13472008  0.14586043     0.14400
H559        H  0.08457543  0.22433069  0.14950780     0.14200
C560        C  0.12141285  0.17239232  0.88790441     0.86000
C561        C  0.09218650  0.19678906  0.91894583    -0.54200
C562        C  0.06640170  0.17142693  0.94162312     0.08900
C563        C  0.07296940  0.12541581  0.93161159     0.19900
C564        C  0.14550093  0.14025738  0.91672459    -0.55000
C565        C  0.11914511  0.11544471  0.93936759     0.09000
C566        C  0.09081978  0.14461087  0.86084601    -0.54500
C567        C  0.06484388  0.12019961  0.88469000     0.09600
H568        H  0.09147391  0.23050916  0.92168947     0.14100
H569        H  0.05263453  0.10526196  0.95072131    -0.00100
H570        H  0.17919161  0.13631492  0.91904772     0.14400
H571        H  0.08947573  0.14518699  0.82670737     0.14200
C572        C  0.83013494  0.17172727  0.16669748     0.86000
C573        C  0.80472242  0.14141305  0.13758285    -0.54200
C574        C  0.82981058  0.11532454  0.11480279     0.08900
C575        C  0.87664326  0.12300094  0.12264186     0.19900
C576        C  0.85963297  0.14285934  0.19355059    -0.55000
C577        C  0.88425132  0.11741188  0.16965734     0.09000
C578        C  0.86096189  0.19510718  0.13634277    -0.54500
C579        C  0.88558218  0.16881788  0.11383977     0.09600
H580        H  0.77062087  0.14033661  0.13608961     0.14100
H581        H  0.89643998  0.10239748  0.10317795    -0.00100
H582        H  0.86148613  0.14357001  0.22766504     0.14400
H583        H  0.86542990  0.22838941  0.13387915     0.14200
C584        C  0.11508273  0.88914615  0.17168059     0.86000
C585        C  0.08232089  0.91460843  0.19858667    -0.54200
C586        C  0.05510306  0.93787390  0.17454979     0.08900
C587        C  0.06439211  0.93429500  0.12761757     0.19900
C588        C  0.08725486  0.86373908  0.13977829    -0.55000
C589        C  0.06074929  0.88822815  0.11648712     0.09000
C590        C  0.13722707  0.92232942  0.14341941    -0.54500
C591        C  0.11018644  0.94599435  0.12118169     0.09600
H592        H  0.08057177  0.91337966  0.23268224     0.14100
H593        H  0.04365398  0.95412825  0.10822706    -0.00100
H594        H  0.08923804  0.83022470  0.13562406     0.14400
H595        H  0.17030181  0.92692033  0.13844185     0.14200
C596        C  0.82275802  0.88909232  0.16745654     0.86000
C597        C  0.84942467  0.92060912  0.19380523    -0.54200
C598        C  0.87522351  0.94464089  0.16980192     0.08900
C599        C  0.87211030  0.93467795  0.12292211     0.19900
C600        C  0.79946509  0.91672390  0.13372370    -0.55000
C601        C  0.82625043  0.94030085  0.11018666     0.09000
C602        C  0.85572143  0.86369311  0.14117401    -0.54500
C603        C  0.88212664  0.88842869  0.11823383     0.09600
H604        H  0.84777529  0.92345783  0.22781511     0.14100
H605        H  0.89310318  0.95443152  0.10382516    -0.00100
H606        H  0.76602010  0.91734710  0.12766250     0.14400
H607        H  0.85808198  0.82994068  0.14141796     0.14200
O608        O  0.02091606  0.05216103  0.15522719    -0.72300
O609        O  0.91665022  0.00102804  0.15230041    -0.72500
O610        O  0.94282217  0.07797533  0.15276807    -0.72300
O611        O  0.99476630  0.97442533  0.15543582    -0.72300
O612        O  0.01247586  0.98526557  0.22013153    -0.72300
O613        O  0.92177299  0.06803577  0.21674954    -0.72300
O614        O  0.92472157  0.98205975  0.21715384    -0.72300
O615        O  0.00857237  0.07110991  0.21942666    -0.72500
V616        V  0.96880231  0.02631870  0.15489412     1.35200
V617        V  0.96683891  0.02654116  0.21897263     1.35200
C618        C  0.02954261  0.07582517  0.18547322     0.77000
C619        C  0.90553320  0.97779569  0.18202056     0.77000
C620        C  0.91806796  0.08770673  0.18195444     0.76900
C621        C  0.01868984  0.96557427  0.18574509     0.76900
C622        C  0.11427777  0.88410171  0.88909594     0.86000
C623        C  0.13958268  0.91186655  0.92113194    -0.54200
C624        C  0.11434748  0.93771647  0.94444052     0.08900
C625        C  0.06795200  0.93333508  0.93299547     0.19900
C626        C  0.08079920  0.86125823  0.91705543    -0.55000
C627        C  0.05641514  0.88778995  0.93950314     0.09000
C628        C  0.08821707  0.91597535  0.86221787    -0.54500
C629        C  0.06461137  0.94243339  0.88602970     0.09600
H630        H  0.17350039  0.91075943  0.92488243     0.14100
H631        H  0.04751752  0.95392359  0.95175220    -0.00100
H632        H  0.07601479  0.82814916  0.91981691     0.14400
H633        H  0.08952879  0.91799960  0.82813688     0.14200
O634        O  0.16187753  0.07374778  0.99006895    -0.72300
O635        O  0.15587234  0.98345931  0.07198199    -0.72500
O636        O  0.15919035  0.98714466  0.98531325    -0.72300
O637        O  0.15892128  0.06801469  0.07738968    -0.72300
O638        O  0.09457588  0.08010256  0.05876728    -0.72300
O639        O  0.09310072  0.98024164  0.99970023    -0.72300
O640        O  0.09047733  0.00139095  0.07907783    -0.72300
O641        O  0.09664952  0.05883393  0.97854618    -0.72500
V642        V  0.15921595  0.02815611  0.03103566     1.35200
V643        V  0.09486159  0.03023803  0.02893004     1.35200
C644        C  0.12799987  0.08087251  0.96967401     0.77000
C645        C  0.12051903  0.97865403  0.09030244     0.77000
C646        C  0.12424766  0.96872621  0.97829220     0.76900
C647        C  0.12447655  0.08731851  0.08375518     0.76900
C648        C  0.83806697  0.17454588  0.88350196     0.86000
C649        C  0.81081978  0.14612676  0.91316576    -0.54200
C650        C  0.83445266  0.12055292  0.93829210     0.08900
C651        C  0.88144576  0.12535870  0.93049412     0.19900
C652        C  0.86901407  0.19759831  0.91424973    -0.55000
C653        C  0.89131772  0.17106414  0.93906715     0.09000
C654        C  0.86674950  0.14365529  0.85846198    -0.54500
C655        C  0.88887556  0.11722388  0.88373261     0.09600
H656        H  0.77672539  0.14720520  0.91466631     0.14100
H657        H  0.90062403  0.10438513  0.95021266    -0.00100
H658        H  0.87269792  0.23088547  0.91777138     0.14400
H659        H  0.86842634  0.14239644  0.82436071     0.14200
O660        O  0.02595880  0.14954460  0.06185409    -0.72300
O661        O  0.92944612  0.14966778  0.99724530    -0.72500
O662        O  0.00946860  0.15067070  0.98136563    -0.72300
O663        O  0.94526081  0.14858890  0.07772827    -0.72300
O664        O  0.92917899  0.21347844  0.06809250    -0.72300
O665        O  0.02569545  0.21514930  0.99215078    -0.72300
O666        O  0.93939183  0.21469230  0.98211234    -0.72300
O667        O  0.01518564  0.21363242  0.07947097    -0.72500
V668        V  0.97764695  0.15080158  0.02961206     1.35200
V669        V  0.97747530  0.21456540  0.03048319     1.35200
C670        C  0.03359150  0.17896154  0.08672004     0.77000
C671        C  0.92066491  0.18031897  0.97433811     0.77000
C672        C  0.03245174  0.18114234  0.97243390     0.76900
C673        C  0.92161824  0.17875032  0.08611725     0.76900
C674        C  0.83416662  0.88935361  0.88062110     0.86000
C675        C  0.86053807  0.86437290  0.91384996    -0.54200
C676        C  0.88366494  0.88924740  0.93987665     0.08900
C677        C  0.87960012  0.93541636  0.92906162     0.19900
C678        C  0.80834237  0.92158378  0.90711587    -0.55000
C679        C  0.83287847  0.94600625  0.93236268     0.09000
C680        C  0.86770717  0.91658861  0.85668658    -0.54500
C681        C  0.89164335  0.94049539  0.88289773     0.09600
H682        H  0.85983562  0.83068675  0.91701346     0.14100
H683        H  0.89934342  0.95501193  0.94968409    -0.00100
H684        H  0.77436346  0.92463454  0.90568461     0.14400
H685        H  0.87306994  0.91703912  0.82309663     0.14200
O686        O  0.91954054  0.90825820  0.00073406    -0.72300
O687        O  0.02105951  0.90800325  0.05857253    -0.72500
O688        O  0.99906101  0.90857549  0.97923886    -0.72300
O689        O  0.94155332  0.90775209  0.08063559    -0.72300
O690        O  0.92394817  0.84351571  0.07016447    -0.72300
O691        O  0.01618228  0.84395423  0.98908037    -0.72300
O692        O  0.01117909  0.84353770  0.07589005    -0.72300
O693        O  0.93001435  0.84397975  0.98310634    -0.72500
V694        V  0.97025573  0.90707054  0.02986724     1.35200
V695        V  0.97029583  0.84337317  0.02966424     1.35200
C696        C  0.91095043  0.87842084  0.97657239     0.77000
C697        C  0.03087009  0.87776826  0.08175458     0.77000
C698        C  0.02203712  0.87824338  0.96954487     0.76900
C699        C  0.91782184  0.87774936  0.08968621     0.76900
O700        O  0.85168350  0.00274380  0.97328042    -0.72300
O701        O  0.84898155  0.05706885  0.07605746    -0.72500
O702        O  0.84874780  0.97886166  0.05239973    -0.72300
O703        O  0.85166059  0.08082314  0.99701578    -0.72300
O704        O  0.78727533  0.07193325  0.97691389    -0.72300
O705        O  0.78339826  0.98968797  0.06787553    -0.72300
O706        O  0.78486598  0.07604756  0.06397386    -0.72300
O707        O  0.78627340  0.98581918  0.98076200    -0.72500
V708        V  0.84919171  0.02988754  0.02463887     1.35200
V709        V  0.78501825  0.03082924  0.02240904     1.35200
C710        C  0.82146230  0.98006620  0.96221104     0.77000
C711        C  0.81900492  0.08105499  0.08470505     0.77000
C712        C  0.81748938  0.96971501  0.07478267     0.76900
C713        C  0.82226906  0.09094167  0.97250262     0.76900
O714        O  0.94956862  0.97997072  0.90366934    -0.72300
O715        O  0.00599862  0.08136792  0.90306166    -0.72500
O716        O  0.92698880  0.05854671  0.90301907    -0.72300
O717        O  0.02903593  0.00292955  0.90356555    -0.72300
O718        O  0.01852513  0.98434466  0.83902870    -0.72300
O719        O  0.93784318  0.07662052  0.83837513    -0.72300
O720        O  0.02482409  0.07088756  0.83864717    -0.72300
O721        O  0.93218835  0.99012140  0.83855934    -0.72500
V722        V  0.97796481  0.03069347  0.90231011     1.35200
V723        V  0.97833121  0.03054211  0.83814229     1.35200
C724        C  0.92638983  0.97037415  0.87306392     0.77000
C725        C  0.03010963  0.09066730  0.87316437     0.77000
C726        C  0.91809379  0.08237059  0.87291193     0.76900
C727        C  0.03763292  0.97851897  0.87391505     0.76900
C728        C  0.72496594  0.77485608  0.77993962    -0.03000
C729        C  0.80672261  0.86020514  0.80968474    -0.21800
C730        C  0.80574056  0.86083871  0.85401676    -0.09800
C731        C  0.77667955  0.83435966  0.87419581     0.29000
C732        C  0.75103906  0.80719220  0.85106624    -0.21800
C733        C  0.75367864  0.80451547  0.80665842    -0.09800
C734        C  0.78093547  0.83322718  0.78651166     0.29000
F735        F  0.78325737  0.83491069  0.74388765    -0.20400
H736        H  0.82686868  0.88067645  0.79197642     0.17400
H737        H  0.72854630  0.78904372  0.86868892     0.17400
F738        F  0.77278176  0.83484582  0.91675738    -0.20400
C739        C  0.19552153  0.85022717  0.80672979    -0.21800
C740        C  0.19289745  0.80609200  0.80669184    -0.09800
C741        C  0.16206324  0.78796438  0.83291998     0.29000
C742        C  0.13726450  0.81239818  0.85955365    -0.21800
C743        C  0.14196528  0.85614438  0.86135907    -0.09800
C744        C  0.17183853  0.87449831  0.83454437     0.29000
F745        F  0.17776671  0.91642344  0.83461582    -0.20400
H746        H  0.21562791  0.86699815  0.78539267     0.17400
H747        H  0.11482192  0.79595925  0.87829302     0.17400
F748        F  0.15655248  0.74601112  0.83382648    -0.20400
C749        C  0.75140903  0.86216544  0.19503157    -0.21800
C750        C  0.79570422  0.86148624  0.19589056    -0.09800
C751        C  0.81545561  0.83539615  0.22562779     0.29000
C752        C  0.79184758  0.80946103  0.25185377    -0.21800
C753        C  0.74757727  0.80705116  0.24828680    -0.09800
C754        C  0.72779119  0.83591829  0.22100498     0.29000
F755        F  0.68523484  0.83750105  0.21794622    -0.20400
H756        H  0.73414649  0.88275864  0.17463496     0.17400
H757        H  0.80900070  0.79159010  0.27497778     0.17400
F758        F  0.85800465  0.83505562  0.22959059    -0.20400
C759        C  0.75855365  0.20668902  0.79858691    -0.21800
C760        C  0.75666462  0.25062095  0.80209873    -0.09800
C761        C  0.78581175  0.26967127  0.82972655     0.29000
C762        C  0.81207475  0.24580859  0.85556804    -0.21800
C763        C  0.81112344  0.20188413  0.85447391    -0.09800
C764        C  0.78422789  0.18281556  0.82499576     0.29000
F765        F  0.78274695  0.14065460  0.82152773    -0.20400
H766        H  0.74057005  0.18992696  0.77531688     0.17400
H767        H  0.83234434  0.26274829  0.87659653     0.17400
F768        F  0.78763152  0.31182438  0.83316086    -0.20400
C769        C  0.15091830  0.25753169  0.80825020    -0.21800
C770        C  0.19527841  0.25525530  0.80654987    -0.09800
C771        C  0.21536554  0.22849222  0.83583558     0.29000
C772        C  0.19213496  0.20235597  0.86215993    -0.21800
C773        C  0.14788844  0.20199364  0.86092091    -0.09800
C774        C  0.12767766  0.23084515  0.83416854     0.29000
F775        F  0.08504092  0.23323179  0.83291778    -0.20400
H776        H  0.13343633  0.27980005  0.78974338     0.17400
H777        H  0.20976492  0.18241963  0.88295668     0.17400
F778        F  0.25796681  0.22603158  0.83764471    -0.20400
C779        C  0.12556714  0.82807867  0.22041209    -0.21800
C780        C  0.14421220  0.86105095  0.19820298    -0.09800
C781        C  0.18876173  0.86476151  0.20077117     0.29000
C782        C  0.21253876  0.83647325  0.22419120    -0.21800
C783        C  0.19367207  0.80574781  0.24934921    -0.09800
C784        C  0.14945717  0.80023356  0.24446532     0.29000
F785        F  0.12876650  0.76674240  0.26022556    -0.20400
H786        H  0.09190925  0.82313282  0.21829781     0.17400
H787        H  0.24640587  0.84034673  0.22484597     0.17400
F788        F  0.21079873  0.89609886  0.18295853    -0.20400
C789        C  0.75126755  0.20304227  0.25140235    -0.21800
C790        C  0.74908673  0.24701641  0.24809685    -0.09800
C791        C  0.77647149  0.26631422  0.21894321     0.29000
C792        C  0.80169791  0.24265891  0.19215450    -0.21800
C793        C  0.80198278  0.19878048  0.19429875    -0.09800
C794        C  0.77610002  0.17943610  0.22431906     0.29000
F795        F  0.77535612  0.13727025  0.22814324    -0.20400
H796        H  0.73444900  0.18595427  0.27527947     0.17400
H797        H  0.82045375  0.25972286  0.16990842     0.17400
F798        F  0.77787647  0.30846133  0.21523553    -0.20400
C799        C  0.17259532  0.21576374  0.18550597    -0.21800
C800        C  0.14300225  0.19083621  0.20663043    -0.09800
C801        C  0.14275644  0.19255212  0.25123392     0.29000
C802        C  0.17004447  0.21912788  0.27276683    -0.21800
C803        C  0.19767896  0.24626532  0.25156712    -0.09800
C804        C  0.20040805  0.24177457  0.20717581     0.29000
F805        F  0.23105144  0.26015577  0.18406774    -0.20400
H806        H  0.17485514  0.21444323  0.15150270     0.17400
H807        H  0.16845054  0.21970926  0.30683233     0.17400
F808        F  0.11599917  0.17020806  0.27531787    -0.20400
C809        C  0.19513066  0.36149754  0.35974128    -0.21800
C810        C  0.15090906  0.36232190  0.35816272    -0.09800
C811        C  0.13064398  0.33515050  0.32979980     0.29000
C812        C  0.15371610  0.30821345  0.30413438    -0.21800
C813        C  0.19804519  0.30596897  0.30672470    -0.09800
C814        C  0.21824162  0.33419502  0.33446736     0.29000
F815        F  0.26082849  0.33494270  0.33774585    -0.20400
H816        H  0.21271500  0.38176347  0.38020941     0.17400
H817        H  0.13612035  0.29009216  0.28159867     0.17400
F818        F  0.08804759  0.33487987  0.32647201    -0.20400
C819        C  0.13318990  0.74736338  0.69887551    -0.21800
C820        C  0.13354187  0.70339275  0.69938651    -0.09800
C821        C  0.16168323  0.68371499  0.72737856     0.29000
C822        C  0.18848909  0.70689298  0.75336425    -0.21800
C823        C  0.19018391  0.75093454  0.75133198    -0.09800
C824        C  0.16052882  0.77064083  0.72448948     0.29000
F825        F  0.15878430  0.81286691  0.72200957    -0.20400
H826        H  0.11251617  0.76456274  0.67835505     0.17400
H827        H  0.20740333  0.68942366  0.77536842     0.17400
F828        F  0.16327141  0.64149433  0.72990466    -0.20400
C829        C  0.13965166  0.74677155  0.36089815    -0.21800
C830        C  0.14000002  0.70294427  0.35918574    -0.09800
C831        C  0.16986525  0.68360431  0.33289572     0.29000
C832        C  0.19780576  0.70723382  0.30879041    -0.21800
C833        C  0.19550124  0.75113929  0.30808780    -0.09800
C834        C  0.16715423  0.77041024  0.33642472     0.29000
F835        F  0.16414377  0.81258303  0.33860147    -0.20400
H836        H  0.11802234  0.76376726  0.38043487     0.17400
H837        H  0.22104290  0.69047442  0.29078335     0.17400
F838        F  0.17237814  0.64141466  0.33073722    -0.20400
C839        C  0.20149965  0.35391953  0.74377646    -0.21800
C840        C  0.19588634  0.31009934  0.74599472    -0.09800
C841        C  0.16635811  0.29245282  0.71803069     0.29000
C842        C  0.14057884  0.31755339  0.69305462    -0.21800
C843        C  0.14422547  0.36142341  0.69330663    -0.09800
C844        C  0.17535227  0.37910425  0.71916409     0.29000
F845        F  0.18091762  0.42105318  0.72050490    -0.20400
H846        H  0.22621402  0.36963476  0.76079483     0.17400
H847        H  0.11732115  0.30146262  0.67471043     0.17400
F848        F  0.16111638  0.25051819  0.71589496    -0.20400
C849        C  0.75105956  0.68971989  0.69714636    -0.21800
C850        C  0.79524308  0.69063700  0.69497077    -0.09800
C851        C  0.81671717  0.71821029  0.72209461     0.29000
C852        C  0.79489502  0.74367780  0.75028649    -0.21800
C853        C  0.75049855  0.74486232  0.75091203    -0.09800
C854        C  0.72909092  0.71608384  0.72457881     0.29000
F855        F  0.68642215  0.71449793  0.72416270    -0.20400
H856        H  0.73275803  0.66918212  0.67753197     0.17400
H857        H  0.81358906  0.76220413  0.77155139     0.17400
F858        F  0.85939171  0.72029911  0.72174761    -0.20400
C859        C  0.74390634  0.74106822  0.34514903    -0.21800
C860        C  0.74826422  0.74562532  0.30107431    -0.09800
C861        C  0.77706413  0.71863041  0.28079344     0.29000
C862        C  0.80297257  0.69189410  0.30391011    -0.21800
C863        C  0.80053389  0.68997990  0.34814810    -0.09800
C864        C  0.77045852  0.71512595  0.36830348     0.29000
F865        F  0.76629510  0.71440716  0.41083589    -0.20400
H866        H  0.71964620  0.75692927  0.36259158     0.17400
H867        H  0.82522472  0.67368993  0.28627788     0.17400
F868        F  0.78117583  0.71890183  0.23826045    -0.20400
C869        C  0.80979507  0.30939883  0.35128207    -0.21800
C870        C  0.80849378  0.35328942  0.34879770    -0.09800
C871        C  0.77976200  0.37123995  0.32034078     0.29000
C872        C  0.75166200  0.34647540  0.29747199    -0.21800
C873        C  0.75071001  0.30256194  0.30214228    -0.09800
C874        C  0.78200131  0.28457893  0.32813080     0.29000
F875        F  0.78537247  0.24253374  0.33180685    -0.20400
H876        H  0.83207771  0.29318620  0.37086532     0.17400
H877        H  0.73141082  0.36246466  0.27546503     0.17400
F878        F  0.77860741  0.41318404  0.31470468    -0.20400
C879        C  0.80781402  0.31246934  0.69381974    -0.21800
C880        C  0.80420028  0.35617170  0.69298984    -0.09800
C881        C  0.77573388  0.37490425  0.72125196     0.29000
C882        C  0.75217595  0.35078158  0.74942797    -0.21800
C883        C  0.75395640  0.30677585  0.74864759    -0.09800
C884        C  0.78343536  0.28829579  0.72095774     0.29000
F885        F  0.78736658  0.24622996  0.71858862    -0.20400
H886        H  0.82896848  0.29586275  0.67342950     0.17400
H887        H  0.73251296  0.36728986  0.77145424     0.17400
F888        F  0.77087266  0.41695615  0.72193593    -0.20400
C889        C  0.67172490  0.83802258  0.68840104    -0.21800
C890        C  0.64270644  0.86318457  0.71005352    -0.09800
C891        C  0.64216874  0.85999680  0.75453849     0.29000
C892        C  0.66922051  0.83240935  0.77552035    -0.21800
C893        C  0.69654166  0.80526651  0.75373683    -0.09800
C894        C  0.69870370  0.81045173  0.70933751     0.29000
F895        F  0.72830437  0.79143000  0.68545015    -0.20400
H896        H  0.67400571  0.84016842  0.65443816     0.17400
H897        H  0.66789371  0.83124265  0.80958208     0.17400
F898        F  0.61547176  0.88218074  0.77883116    -0.20400
C899        C  0.30863295  0.85508019  0.74664908    -0.21800
C900        C  0.30525529  0.85676930  0.70256073    -0.09800
C901        C  0.27750170  0.82876238  0.68274814     0.29000
C902        C  0.25166171  0.80249923  0.70648171    -0.21800
C903        C  0.25164856  0.80400434  0.75097693    -0.09800
C904        C  0.28277175  0.82913986  0.77035385     0.29000
F905        F  0.28715409  0.83010486  0.81285136    -0.20400
H906        H  0.33133491  0.87327817  0.76382185     0.17400
H907        H  0.23203120  0.78104838  0.68923602     0.17400
F908        F  0.27535615  0.82668185  0.64010149    -0.20400
C909        C  0.30398811  0.80783620  0.36443923    -0.21800
C910        C  0.30246362  0.85165930  0.36554189    -0.09800
C911        C  0.27314436  0.87184930  0.33919891     0.29000
C912        C  0.24660454  0.84909843  0.31273389    -0.21800
C913        C  0.24994867  0.80529617  0.30923079    -0.09800
C914        C  0.27824016  0.78510808  0.33710216     0.29000
F915        F  0.28182992  0.74293718  0.33720179    -0.20400
H916        H  0.32537631  0.79028881  0.38389389     0.17400
H917        H  0.22313403  0.86660741  0.29574825     0.17400
F918        F  0.26981610  0.91405624  0.33917476    -0.20400
C919        C  0.62650701  0.83278635  0.33036652    -0.21800
C920        C  0.64728119  0.85557833  0.36206076    -0.09800
C921        C  0.69168534  0.85271266  0.36357371     0.29000
C922        C  0.71369794  0.82947151  0.33366297    -0.21800
C923        C  0.69298940  0.80469971  0.30340925    -0.09800
C924        C  0.64856274  0.80880007  0.30088649     0.29000
F925        F  0.62590090  0.79230047  0.26878429    -0.20400
H926        H  0.59258110  0.83453847  0.32756864     0.17400
H927        H  0.74770362  0.82853532  0.33592554     0.17400
F928        F  0.71479025  0.86970872  0.39489683    -0.20400
C929        C  0.30628769  0.19167600  0.31042507    -0.21800
C930        C  0.30196935  0.18915733  0.35450257    -0.09800
C931        C  0.27221458  0.21544193  0.37378140     0.29000
C932        C  0.24768405  0.24283375  0.34991390    -0.21800
C933        C  0.25302532  0.24686045  0.30586602    -0.09800
C934        C  0.28197387  0.21937314  0.28653459     0.29000
F935        F  0.28742843  0.21969282  0.24416658    -0.20400
H936        H  0.32901720  0.17318319  0.29364154     0.17400
H937        H  0.22395289  0.26019217  0.36668655     0.17400
F938        F  0.26645545  0.21460498  0.41612134    -0.20400
C939        C  0.26967792  0.18554279  0.71577561    -0.21800
C940        C  0.30025875  0.20436341  0.69021574    -0.09800
C941        C  0.30374189  0.24842506  0.69195173     0.29000
C942        C  0.27715822  0.27180324  0.71770347    -0.21800
C943        C  0.24831962  0.25287119  0.74534939    -0.09800
C944        C  0.24338348  0.20894876  0.74185812     0.29000
F945        F  0.21198752  0.18789041  0.76132261    -0.20400
H946        H  0.26558064  0.15203257  0.71514303     0.17400
H947        H  0.28084972  0.30538019  0.71788566     0.17400
F948        F  0.33408366  0.26996112  0.67159343    -0.20400
C949        C  0.69358125  0.24686710  0.34968285    -0.21800
C950        C  0.69216515  0.24594471  0.30523945    -0.09800
C951        C  0.66283869  0.21846636  0.28638483     0.29000
C952        C  0.63893684  0.19108637  0.31057063    -0.21800
C953        C  0.64200415  0.19054773  0.35477138    -0.09800
C954        C  0.66961116  0.21924599  0.37392337     0.29000
F955        F  0.67288121  0.22118801  0.41649619    -0.20400
H956        H  0.71276368  0.26910949  0.36644060     0.17400
H957        H  0.61798572  0.17078222  0.29349736     0.17400
F958        F  0.65848028  0.21678859  0.24387963    -0.20400
C959        C  0.66267506  0.23062867  0.68133719    -0.21800
C960        C  0.63867548  0.19974749  0.70137770    -0.09800
C961        C  0.64288355  0.19596365  0.74572668     0.29000
C962        C  0.66920527  0.22256128  0.76819720    -0.21800
C963        C  0.69530777  0.25176673  0.74807934    -0.09800
C964        C  0.68968704  0.25682181  0.70386999     0.29000
F965        F  0.70760057  0.28835743  0.68186675    -0.20400
H966        H  0.66005494  0.23498272  0.64760780     0.17400
H967        H  0.67095517  0.21874971  0.80206038     0.17400
F968        F  0.62438457  0.16552703  0.76852957    -0.20400
C969        C  0.28509249  0.72664655  0.87144710    -0.21800
C970        C  0.31075386  0.69788453  0.85015489    -0.09800
C971        C  0.30797347  0.69713610  0.80564691     0.29000
C972        C  0.27918622  0.72259854  0.78442049    -0.21800
C973        C  0.25137857  0.74955469  0.80581990    -0.09800
C974        C  0.25646817  0.75232716  0.85021332     0.29000
F975        F  0.23643677  0.78131821  0.87379222    -0.20400
H976        H  0.28741936  0.72946773  0.90536149     0.17400
H977        H  0.27830187  0.72104296  0.75035294     0.17400
F978        F  0.33286134  0.67294850  0.78138489    -0.20400
C979        C  0.69672956  0.68821447  0.86109882    -0.21800
C980        C  0.65240228  0.68802289  0.86113643    -0.09800
C981        C  0.63170576  0.71617823  0.83404829     0.29000
C982        C  0.65428314  0.74308217  0.80779711    -0.21800
C983        C  0.69871799  0.74485947  0.80876225    -0.09800
C984        C  0.71943063  0.71577933  0.83536633     0.29000
F985        F  0.76209967  0.71443680  0.83705173    -0.20400
H986        H  0.71459407  0.66763198  0.88111643     0.17400
H987        H  0.63606858  0.76171285  0.78618531     0.17400
F988        F  0.58903386  0.71757193  0.83261738    -0.20400
C989        C  0.63711434  0.35188424  0.81507084    -0.21800
C990        C  0.63972548  0.34974336  0.85942439    -0.09800
C991        C  0.66796434  0.32060529  0.87666164     0.29000
C992        C  0.69483906  0.29738762  0.85065264    -0.21800
C993        C  0.69555788  0.30309824  0.80628833    -0.09800
C994        C  0.66429904  0.32942358  0.78920753     0.29000
F995        F  0.66000717  0.33390333  0.74691992    -0.20400
H996        H  0.61382700  0.37025052  0.79898918     0.17400
H997        H  0.71443910  0.27455687  0.86608118     0.17400
F998        F  0.66958830  0.31437582  0.91891231    -0.20400
C999        C  0.25629241  0.36241434  0.85855078    -0.21800
C1000       C  0.30054209  0.36119361  0.85726967    -0.09800
C1001       C  0.31968185  0.33127182  0.83120275     0.29000
C1002       C  0.29540977  0.30490969  0.80598150    -0.21800
C1003       C  0.25105574  0.30827309  0.80476628    -0.09800
C1004       C  0.23208218  0.33638927  0.83326751     0.29000
F1005       F  0.18956117  0.33987584  0.83562228    -0.20400
H1006       H  0.23923677  0.38276351  0.87928649     0.17400
H1007       H  0.31205602  0.28146788  0.78829867     0.17400
F1008       F  0.36218047  0.32702612  0.83053165    -0.20400
C1009       C  0.25175017  0.36178977  0.19654149    -0.21800
C1010       C  0.29590366  0.36304020  0.19732266    -0.09800
C1011       C  0.31704324  0.33779456  0.22697792     0.29000
C1012       C  0.29491202  0.31075252  0.25331587    -0.21800
C1013       C  0.25078365  0.30710168  0.25064801    -0.09800
C1014       C  0.22953078  0.33489743  0.22309262     0.29000
F1015       F  0.18690384  0.33476669  0.22043900    -0.20400
H1016       H  0.23371985  0.38127694  0.17556413     0.17400
H1017       H  0.31294414  0.29327723  0.27610858     0.17400
F1018       F  0.35960153  0.33924899  0.23058142    -0.20400
C1019       C  0.66650463  0.71864360  0.26745101    -0.21800
C1020       C  0.69369444  0.74648041  0.24666960    -0.09800
C1021       C  0.69702877  0.74245547  0.20226456     0.29000
C1022       C  0.67114157  0.71474598  0.18029636    -0.21800
C1023       C  0.64234663  0.68867272  0.20111681    -0.09800
C1024       C  0.64061018  0.69116552  0.24561701     0.29000
F1025       F  0.61329465  0.66913049  0.26933990    -0.20400
H1026       H  0.66409135  0.71940424  0.30146740     0.17400
H1027       H  0.67401060  0.71329512  0.14634152     0.17400
F1028       F  0.72658150  0.76283280  0.17947227    -0.20400
C1029       C  0.63087962  0.35184001  0.24870301    -0.21800
C1030       C  0.63114940  0.35219507  0.20440333    -0.09800
C1031       C  0.65909070  0.32513208  0.18360282     0.29000
C1032       C  0.68580698  0.29889995  0.20616751    -0.21800
C1033       C  0.68814232  0.30056067  0.25053945    -0.09800
C1034       C  0.65872420  0.32651883  0.27137971     0.29000
F1035       F  0.65771602  0.32834655  0.31406736    -0.20400
H1036       H  0.61009363  0.37157012  0.26655124     0.17400
H1037       H  0.70442282  0.27743039  0.18794972     0.17400
F1038       F  0.66084625  0.32413243  0.14089537    -0.20400
C1039       C  0.29513332  0.75881741  0.24436555    -0.21800
C1040       C  0.25098380  0.75309281  0.24758687    -0.09800
C1041       C  0.23256096  0.72476060  0.21901457     0.29000
C1042       C  0.25720696  0.70031061  0.19232126    -0.21800
C1043       C  0.30150600  0.70367217  0.19149623    -0.09800
C1044       C  0.31989432  0.73425695  0.21745828     0.29000
F1045       F  0.36213224  0.74050970  0.21690957    -0.20400
H1046       H  0.31124728  0.78254688  0.26228526     0.17400
H1047       H  0.24020595  0.67861305  0.17287579     0.17400
F1048       F  0.19023586  0.71938695  0.21779557    -0.20400
loop_ 
_geom_bond_atom_site_label_1 
_geom_bond_atom_site_label_2 
_geom_bond_distance 
_geom_bond_site_symmetry_2 
_ccdc_geom_bond_type 
C1            C2   1.572       .  S
C1            C7   1.571       .  S
C1            C5   1.573       .  S
C1         C1043   1.544       .  S
C2            H9   1.085       .  S
C2            C3   1.369       .  D
C3            C4   1.524       .  S
C3           C62   1.499       .  S
C4            C8   1.519       .  S
C4            C6   1.524       .  S
C4           H10   1.102       .  S
C5           H11   1.085       .  S
C5            C6   1.371       .  D
C6          C135   1.500       .  S
C7           H12   1.081       .  S
C7            C8   1.354       .  D
C8          C124   1.481       .  S
C13          C14   1.564       .  S
C13          C19   1.571       .  S
C13          C17   1.563       .  S
C13        C1030   1.527       .  S
C14          H21   1.086       .  S
C14          C15   1.361       .  D
C15          C16   1.526       .  S
C15         C166   1.486       .  S
C16          C20   1.525       .  S
C16          C18   1.526       .  S
C16          H22   1.104       .  S
C17          H23   1.086       .  S
C17          C18   1.361       .  D
C18         C149   1.488       .  S
C19          H24   1.082       .  S
C19          C20   1.365       .  D
C20          C61   1.491       .  S
C25          C26   1.570       .  S
C25          C31   1.565       .  S
C25          C29   1.568       .  S
C25        C1023   1.534       .  S
C26          H33   1.085       .  S
C26          C27   1.367       .  D
C27          C28   1.527       .  S
C27         C151   1.493       .  S
C28          C32   1.522       .  S
C28          C30   1.524       .  S
C28          H34   1.105       .  S
C29          H35   1.085       .  S
C29          C30   1.365       .  D
C30         C138   1.493       .  S
C31          H36   1.075       .  S
C31          C32   1.351       .  D
C32          C59   1.473       .  S
C37          C38   1.564       .  S
C37          C43   1.577       .  S
C37          C41   1.559       .  S
C37        C1010   1.527       .  S
C38          H45   1.086       .  S
C38          C39   1.360       .  D
C39          C40   1.524       .  S
C39         C164   1.491       .  S
C40          C44   1.524       .  S
C40          C42   1.525       .  S
C40          H46   1.104       .  S
C41          H47   1.086       .  S
C41          C42   1.357       .  D
C42          C60   1.479       .  S
C43          H48   1.082       .  S
C43          C44   1.370       .  D
C44         C121   1.495       .  S
O49          V57   1.943       .  S
O49          C59   1.277       .  A
O50          V57   1.948       .  S
O50          C60   1.275       .  A
O51          V57   1.951       .  S
O51          C61   1.276       .  A
O52          V57   1.960       .  S
O52          C62   1.278       .  A
O53          V58   1.860       .  S
O53          C62   1.259       .  A
O54          V58   1.864       .  S
O54          C61   1.259       .  A
O55          V58   1.846       .  S
O55          C60   1.254       .  A
O56          V58   1.846       .  S
O56          C59   1.253       .  A
V57          V58   2.041       .  T
C63          C64   1.569       .  S
C63          C69   1.563       .  S
C63          C67   1.570       .  S
C63        C1000   1.526       .  S
C64          H71   1.080       .  S
C64          C65   1.354       .  D
C65          C66   1.520       .  S
C65         C123   1.479       .  S
C66          C70   1.525       .  S
C66          C68   1.525       .  S
C66          H72   1.103       .  S
C67          H73   1.085       .  S
C67          C68   1.368       .  D
C68         C177   1.494       .  S
C69          H74   1.086       .  S
C69          C70   1.361       .  D
C70         C165   1.487       .  S
C75          C76   1.566       .  S
C75          C81   1.572       .  S
C75          C79   1.574       .  S
C75         C990   1.540       .  S
C76          H83   1.079       .  S
C76          C77   1.349       .  D
C77          C78   1.518       .  S
C77         C179   1.477       .  S
C78          C82   1.525       .  S
C78          C80   1.527       .  S
C78          H84   1.102       .  S
C79          H85   1.085       .  S
C79          C80   1.371       .  D
C80         C152   1.500       .  S
C81          H86   1.085       .  S
C81          C82   1.371       .  D
C82         C163   1.500       .  S
C87          C88   1.568       .  S
C87          C93   1.574       .  S
C87          C91   1.565       .  S
C87         C980   1.538       .  S
C88          H95   1.085       .  S
C88          C89   1.365       .  D
C89          C90   1.524       .  S
C89         C178   1.492       .  S
C90          C94   1.526       .  S
C90          C92   1.524       .  S
C90          H96   1.103       .  S
C91          H97   1.085       .  S
C91          C92   1.363       .  D
C92         C136   1.494       .  S
C93          H98   1.082       .  S
C93          C94   1.367       .  D
C94         C150   1.494       .  S
C99         C100   1.570       .  S
C99         C105   1.572       .  S
C99         C103   1.574       .  S
C99         C970   1.541       .  S
C100        H107   1.086       .  S
C100        C101   1.364       .  D
C101        C102   1.521       .  S
C101        C122   1.494       .  S
C102        C106   1.520       .  S
C102        C104   1.524       .  S
C102        H108   1.101       .  S
C103        H109   1.085       .  S
C103        C104   1.369       .  D
C104        C137   1.500       .  S
C105        H110   1.076       .  S
C105        C106   1.359       .  D
C106        C180   1.485       .  S
O111        V119   1.956       .  S
O111        C121   1.277       .  A
O112        V119   1.956   1_556  S
O112        C122   1.276       .  A
O113        V119   1.945   1_556  S
O113        C123   1.275       .  A
O114        V119   1.948       .  S
O114        C124   1.276       .  A
O115        V120   1.849       .  S
O115        C124   1.254       .  A
O116        V120   1.849   1_556  S
O116        C123   1.254       .  A
O117        V120   1.858   1_556  S
O117        C122   1.258       .  A
O118        V120   1.859       .  S
O118        C121   1.258       .  A
V119        V120   2.045       .  T
O125        V133   1.960       .  S
O125        C135   1.277       .  A
O126        V133   1.957   1_556  S
O126        C136   1.278       .  A
O127        V133   1.965   1_556  S
O127        C137   1.278       .  A
O128        V133   1.957       .  S
O128        C138   1.278       .  A
O129        V134   1.859       .  S
O129        C138   1.257       .  A
O130        V134   1.854   1_556  S
O130        C137   1.256       .  A
O131        V134   1.859       .  S
O131        C136   1.257   1_554  A
O132        V134   1.861       .  S
O132        C135   1.259       .  A
V133        V134   2.041       .  T
O139        V147   1.956       .  S
O139        C149   1.278       .  A
O140        V147   1.957   1_556  S
O140        C150   1.277       .  A
O141        V147   1.957       .  S
O141        C151   1.278       .  A
O142        V147   1.964   1_556  S
O142        C152   1.278       .  A
O143        V148   1.856       .  S
O143        C152   1.257   1_554  A
O144        V148   1.859       .  S
O144        C151   1.258       .  A
O145        V148   1.856   1_556  S
O145        C150   1.257       .  A
O146        V148   1.854       .  S
O146        C149   1.256       .  A
V147        V148   2.039       .  T
O153        V161   1.963   1_556  S
O153        C163   1.278       .  A
O154        V161   1.954       .  S
O154        C164   1.277       .  A
O155        V161   1.956   1_556  S
O155        C165   1.278       .  A
O156        V161   1.953       .  S
O156        C166   1.277       .  A
O157        V162   1.853       .  S
O157        C166   1.255       .  A
O158        V162   1.849       .  S
O158        C165   1.255   1_554  A
O159        V162   1.859       .  S
O159        C164   1.257       .  A
O160        V162   1.859   1_556  S
O160        C163   1.258       .  A
V161        V162   2.040       .  T
O167        V175   1.957       .  S
O167        C177   1.277       .  A
O168        V175   1.955       .  S
O168        C178   1.277       .  A
O169        V175   1.942       .  S
O169        C179   1.275       .  A
O170        V175   1.949       .  S
O170        C180   1.276       .  A
O171        V176   1.850       .  S
O171        C180   1.255       .  A
O172        V176   1.851       .  S
O172        C179   1.254       .  A
O173        V176   1.857       .  S
O173        C178   1.257       .  A
O174        V176   1.854       .  S
O174        C177   1.257       .  A
V175        V176   2.046       .  T
C181        C182   1.565       .  S
C181        C187   1.574       .  S
C181        C185   1.573       .  S
C181        C960   1.537       .  S
C182        H189   1.076       .  S
C182        C183   1.349       .  D
C183        C184   1.518       .  S
C183        C316   1.472       .  S
C184        C188   1.527       .  S
C184        C186   1.524       .  S
C184        H190   1.101       .  S
C185        H191   1.085       .  S
C185        C186   1.368       .  D
C186        C302   1.500       .  S
C187        H192   1.085       .  S
C187        C188   1.369       .  D
C188        C240   1.504       .  S
C193        C194   1.573       .  S
C193        C199   1.565       .  S
C193        C197   1.571       .  S
C193        C953   1.531       .  S
C194        H201   1.085       .  S
C194        C195   1.370       .  D
C195        C196   1.526       .  S
C195        C304   1.502       .  S
C196        C200   1.522       .  S
C196        C198   1.524       .  S
C196        H202   1.102       .  S
C197        H203   1.082       .  S
C197        C198   1.356       .  D
C198        C343   1.491       .  S
C199        H204   1.086       .  S
C199        C200   1.361       .  D
C200        C241   1.483       .  S
C205        C206   1.565       .  S
C205        C211   1.572       .  S
C205        C209   1.573       .  S
C205        C940   1.537       .  S
C206        H213   1.077       .  S
C206        C207   1.352       .  D
C207        C208   1.521       .  S
C207        C242   1.478       .  S
C208        C212   1.522       .  S
C208        C210   1.525       .  S
C208        H214   1.102       .  S
C209        H215   1.085       .  S
C209        C210   1.368       .  D
C210        C332   1.496       .  S
C211        H216   1.085       .  S
C211        C212   1.368       .  D
C212        C317   1.497       .  S
C217        C218   1.565       .  S
C217        C223   1.568       .  S
C217        C221   1.571       .  S
C217        C930   1.533       .  S
C218        H225   1.086       .  S
C218        C219   1.363       .  D
C219        C220   1.524       .  S
C219        C239   1.493       .  S
C220        C224   1.528       .  S
C220        C222   1.524       .  S
C220        H226   1.103       .  S
C221        H227   1.081       .  S
C221        C222   1.362       .  D
C222        C345   1.487       .  S
C223        H228   1.085       .  S
C223        C224   1.364       .  D
C224        C329   1.493       .  S
O229        V237   1.956       .  S
O229        C239   1.277       .  A
O230        V237   1.967       .  S
O230        C240   1.279       .  A
O231        V237   1.951       .  S
O231        C241   1.275       .  A
O232        V237   1.945       .  S
O232        C242   1.276       .  A
O233        V238   1.847       .  S
O233        C242   1.254       .  A
O234        V238   1.845       .  S
O234        C241   1.254       .  A
O235        V238   1.855       .  S
O235        C240   1.257       .  A
O236        V238   1.858       .  S
O236        C239   1.257       .  A
V237        V238   2.042       .  T
C243        C244   1.568       .  S
C243        C249   1.574       .  S
C243        C247   1.578       .  S
C243        C920   1.542       .  S
C244        H251   1.086       .  S
C244        C245   1.360       .  D
C245        C246   1.524       .  S
C245        C346   1.491       .  S
C246        C250   1.526       .  S
C246        C248   1.520       .  S
C246        H252   1.100       .  S
C247        H253   1.077       .  S
C247        C248   1.361       .  D
C248        C301   1.491       .  S
C249        H254   1.085       .  S
C249        C250   1.371       .  D
C250        C359   1.507       .  S
C255        C256   1.564       .  S
C255        C261   1.574       .  S
C255        C259   1.568       .  S
C255        C910   1.531       .  S
C256        H263   1.086       .  S
C256        C257   1.360       .  D
C257        C258   1.526       .  S
C257        C331   1.495       .  S
C258        C262   1.526       .  S
C258        C260   1.523       .  S
C258        H264   1.103       .  S
C259        H265   1.085       .  S
C259        C260   1.365       .  D
C260        C344   1.487       .  S
C261        H266   1.081       .  S
C261        C262   1.363       .  D
C262        C358   1.493       .  S
C267        C268   1.563       .  S
C267        C273   1.571       .  S
C267        C271   1.569       .  S
C267        C900   1.525       .  S
C268        H275   1.086       .  S
C268        C269   1.360       .  D
C269        C270   1.525       .  S
C269        C360   1.492       .  S
C270        C274   1.526       .  S
C270        C272   1.524       .  S
C270        H276   1.102       .  S
C271        H277   1.081       .  S
C271        C272   1.356       .  D
C272        C315   1.486       .  S
C273        H278   1.085       .  S
C273        C274   1.367       .  D
C274        C330   1.491       .  S
C279        C280   1.571       .  S
C279        C285   1.576       .  S
C279        C283   1.572       .  S
C279        C890   1.543       .  S
C280        H287   1.086       .  S
C280        C281   1.365       .  D
C281        C282   1.524       .  S
C281        C357   1.491       .  S
C282        C286   1.521       .  S
C282        C284   1.526       .  S
C282        H288   1.101       .  S
C283        H289   1.085       .  S
C283        C284   1.366       .  D
C284        C303   1.504       .  S
C285        H290   1.077       .  S
C285        C286   1.363       .  D
C286        C318   1.497       .  S
O291        V299   1.959   1_565  S
O291        C301   1.278       .  A
O292        V299   1.964       .  S
O292        C302   1.278       .  A
O293        V299   1.967   1_565  S
O293        C303   1.279       .  A
O294        V299   1.963       .  S
O294        C304   1.277       .  A
O295        V300   1.853       .  S
O295        C304   1.257       .  A
O296        V300   1.853   1_565  S
O296        C303   1.256       .  A
O297        V300   1.848       .  S
O297        C302   1.255       .  A
O298        V300   1.847   1_565  S
O298        C301   1.254       .  A
V299        V300   2.045       .  T
O305        V313   1.953   1_565  S
O305        C315   1.277       .  A
O306        V313   1.942       .  S
O306        C316   1.275       .  A
O307        V313   1.961       .  S
O307        C317   1.278       .  A
O308        V313   1.957   1_565  S
O308        C318   1.277       .  A
O309        V314   1.858   1_565  S
O309        C318   1.258       .  A
O310        V314   1.854       .  S
O310        C317   1.257       .  A
O311        V314   1.840       .  S
O311        C316   1.252       .  A
O312        V314   1.845       .  S
O312        C315   1.253   1_545  A
V313        V314   2.043       .  T
O319        V327   1.853       .  S
O319        C329   1.255       .  A
O320        V327   1.846   1_565  S
O320        C330   1.254       .  A
O321        V327   1.856   1_565  S
O321        C331   1.257       .  A
O322        V327   1.855       .  S
O322        C332   1.257       .  A
O323        V328   1.960       .  S
O323        C332   1.277       .  A
O324        V328   1.958   1_565  S
O324        C331   1.278       .  A
O325        V328   1.961   1_565  S
O325        C330   1.278       .  A
O326        V328   1.959       .  S
O326        C329   1.279       .  A
V327        V328   2.039       .  T
O333        V341   1.956       .  S
O333        C343   1.278       .  A
O334        V341   1.955   1_565  S
O334        C344   1.276       .  A
O335        V341   1.952       .  S
O335        C345   1.277       .  A
O336        V341   1.957   1_565  S
O336        C346   1.277       .  A
O337        V342   1.848   1_565  S
O337        C346   1.255       .  A
O338        V342   1.852       .  S
O338        C345   1.256       .  A
O339        V342   1.848   1_565  S
O339        C344   1.255       .  A
O340        V342   1.850       .  S
O340        C343   1.255       .  A
V341        V342   2.044       .  T
O347        V355   1.961       .  S
O347        C357   1.278       .  A
O348        V355   1.958       .  S
O348        C358   1.277       .  A
O349        V355   1.970       .  S
O349        C359   1.279       .  A
O350        V355   1.956       .  S
O350        C360   1.277       .  A
O351        V356   1.852       .  S
O351        C360   1.256       .  A
O352        V356   1.851       .  S
O352        C359   1.256       .  A
O353        V356   1.851       .  S
O353        C358   1.256       .  A
O354        V356   1.841       .  S
O354        C357   1.253       .  A
V355        V356   2.044       .  T
C361        C362   1.575       .  S
C361        C367   1.571       .  S
C361        C365   1.563       .  S
C361        C880   1.532       .  S
C362        H369   1.080       .  S
C362        C363   1.361       .  D
C363        C364   1.522       .  S
C363        C463   1.488       .  S
C364        C368   1.523       .  S
C364        C366   1.527       .  S
C364        H370   1.102       .  S
C365        H371   1.086       .  S
C365        C366   1.359       .  D
C366        C433   1.493       .  S
C367        H372   1.085       .  S
C367        C368   1.368       .  D
C368        C477   1.493       .  S
C373        C374   1.574       .  S
C373        C379   1.569       .  S
C373        C377   1.570       .  S
C373        C870   1.535       .  S
C374        H381   1.085       .  S
C374        C375   1.370       .  D
C375        C376   1.522       .  S
C375        C450   1.502       .  S
C376        C380   1.527       .  S
C376        C378   1.523       .  S
C376        H382   1.101       .  S
C377        H383   1.080       .  S
C377        C378   1.358       .  D
C378        C461   1.482       .  S
C379        H384   1.085       .  S
C379        C380   1.363       .  D
C380        C476   1.502       .  S
C385        C386   1.567       .  S
C385        C391   1.566       .  S
C385        C389   1.567       .  S
C385        C863   1.527       .  S
C386        H393   1.085       .  S
C386        C387   1.365       .  D
C387        C388   1.526       .  S
C387        C421   1.493       .  S
C388        C392   1.525       .  S
C388        C390   1.526       .  S
C388        H394   1.104       .  S
C389        H395   1.081       .  S
C389        C390   1.357       .  D
C390        C448   1.484       .  S
C391        H396   1.085       .  S
C391        C392   1.362       .  D
C392        C478   1.489       .  S
C397        C398   1.562       .  S
C397        C403   1.577       .  S
C397        C401   1.566       .  S
C397        C850   1.534       .  S
C398        H405   1.086       .  S
C398        C399   1.358       .  D
C399        C400   1.525       .  S
C399        C436   1.489       .  S
C400        C404   1.527       .  S
C400        C402   1.525       .  S
C400        H406   1.103       .  S
C401        H407   1.085       .  S
C401        C402   1.365       .  D
C402        C420   1.490       .  S
C403        H408   1.082       .  S
C403        C404   1.369       .  D
C404        C475   1.499       .  S
O409        V417   1.854   1_455  S
O409        C419   1.256       .  A
O410        V417   1.853       .  S
O410        C420   1.256       .  A
O411        V417   1.854       .  S
O411        C421   1.256       .  A
O412        V417   1.856       .  S
O412        C422   1.257   1_655  A
O413        V418   1.958   1_455  S
O413        C422   1.277       .  A
O414        V418   1.957       .  S
O414        C421   1.278       .  A
O415        V418   1.954       .  S
O415        C420   1.276       .  A
O416        V418   1.949   1_455  S
O416        C419   1.275       .  A
V417        V418   2.046       .  T
C419        C496   1.485       .  S
C422        C508   1.495       .  S
O423        V431   1.850       .  S
O423        C433   1.255       .  A
O424        V431   1.854   1_455  S
O424        C434   1.256       .  A
O425        V431   1.853       .  S
O425        C435   1.257   1_655  A
O426        V431   1.858       .  S
O426        C436   1.257       .  A
O427        V432   1.954       .  S
O427        C436   1.277       .  A
O428        V432   1.964   1_455  S
O428        C435   1.278       .  A
O429        V432   1.961   1_455  S
O429        C434   1.278       .  A
O430        V432   1.960       .  S
O430        C433   1.279       .  A
V431        V432   2.037       .  T
C434        C510   1.495       .  S
C435        C484   1.499       .  S
O437        V445   1.965   1_455  S
O437        C447   1.279       .  A
O438        V445   1.952       .  S
O438        C448   1.278       .  A
O439        V445   1.962   1_455  S
O439        C449   1.279       .  A
O440        V445   1.963       .  S
O440        C450   1.277       .  A
O441        V446   1.862       .  S
O441        C450   1.259       .  A
O442        V446   1.860   1_455  S
O442        C449   1.258       .  A
O443        V446   1.850       .  S
O443        C448   1.254       .  A
O444        V446   1.845   1_455  S
O444        C447   1.253       .  A
V445        V446   2.036       .  T
C447        C520   1.495       .  S
C449        C493   1.499       .  S
O451        V459   1.950       .  S
O451        C461   1.275       .  A
O452        V459   1.944   1_455  S
O452        C462   1.274       .  A
O453        V459   1.952       .  S
O453        C463   1.275       .  A
O454        V459   1.955   1_455  S
O454        C464   1.275       .  A
O455        V460   1.841   1_455  S
O455        C464   1.254       .  A
O456        V460   1.846       .  S
O456        C463   1.255       .  A
O457        V460   1.838   1_455  S
O457        C462   1.252       .  A
O458        V460   1.837       .  S
O458        C461   1.252       .  A
V459        V460   2.056       .  T
C462        C486   1.477       .  S
C464        C517   1.490       .  S
O465        V473   1.964       .  S
O465        C475   1.280       .  A
O466        V473   1.967       .  S
O466        C476   1.280       .  A
O467        V473   1.956       .  S
O467        C477   1.276       .  A
O468        V473   1.954       .  S
O468        C478   1.276       .  A
O469        V474   1.855       .  S
O469        C478   1.257       .  A
O470        V474   1.854       .  S
O470        C477   1.257       .  A
O471        V474   1.853       .  S
O471        C476   1.255       .  A
O472        V474   1.856       .  S
O472        C475   1.256       .  A
V473        V474   2.040       .  T
C479        C480   1.568       .  S
C479        C485   1.566       .  S
C479        C483   1.575       .  S
C479        C843   1.532       .  S
C480        H487   1.085       .  S
C480        C481   1.363       .  D
C481        C482   1.527       .  S
C481        C538   1.495       .  S
C482        C486   1.520       .  S
C482        C484   1.522       .  S
C482        H488   1.100       .  S
C483        H489   1.085       .  S
C483        C484   1.371       .  D
C485        H490   1.079       .  S
C485        C486   1.351       .  D
C491        C492   1.570       .  S
C491        C497   1.561       .  S
C491        C495   1.571       .  S
C491        C830   1.528       .  S
C492        H499   1.085       .  S
C492        C493   1.368       .  D
C493        C494   1.526       .  S
C494        C498   1.526       .  S
C494        C496   1.523       .  S
C494        H500   1.103       .  S
C495        H501   1.081       .  S
C495        C496   1.360       .  D
C497        H502   1.086       .  S
C497        C498   1.358       .  D
C498        C537   1.483       .  S
C503        C504   1.569       .  S
C503        C509   1.569       .  S
C503        C507   1.575       .  S
C503        C820   1.542       .  S
C504        H511   1.085       .  S
C504        C505   1.366       .  D
C505        C506   1.524       .  S
C505        C539   1.498       .  S
C506        C510   1.527       .  S
C506        C508   1.525       .  S
C506        H512   1.102       .  S
C507        H513   1.081       .  S
C507        C508   1.366       .  D
C509        H514   1.085       .  S
C509        C510   1.365       .  D
C515        C516   1.566       .  S
C515        C521   1.580       .  S
C515        C519   1.566       .  S
C515        C810   1.531       .  S
C516        H523   1.086       .  S
C516        C517   1.362       .  D
C517        C518   1.524       .  S
C518        C522   1.519       .  S
C518        C520   1.527       .  S
C518        H524   1.100       .  S
C519        H525   1.085       .  S
C519        C520   1.362       .  D
C521        H526   1.081       .  S
C521        C522   1.366       .  D
C522        C540   1.496       .  S
O527        V535   1.845       .  S
O527        C537   1.253       .  A
O528        V535   1.845       .  S
O528        C538   1.254       .  A
O529        V535   1.862       .  S
O529        C539   1.258       .  A
O530        V535   1.860       .  S
O530        C540   1.259       .  A
O531        V536   1.957       .  S
O531        C540   1.276       .  A
O532        V536   1.959       .  S
O532        C539   1.278       .  A
O533        V536   1.960       .  S
O533        C538   1.278       .  A
O534        V536   1.953       .  S
O534        C537   1.277       .  A
V535        V536   2.042       .  T
C541        C803   1.560       .  S
C541        C813   1.561       .  S
C541        C933   1.563       .  S
C541       C1013   1.555       .  S
C542        C790   1.560       .  S
C542        C873   1.562       .  S
C542        C950   1.558       .  S
C542       C1033   1.560       .  S
C543        C783   1.563       .  S
C543        C833   1.553       .  S
C543        C913   1.563       .  S
C543       C1040   1.567       .  S
C544        C770   1.557       .  S
C544        C840   1.562       .  S
C544        C943   1.561       .  S
C544       C1003   1.557       .  S
C545        C760   1.564       .  S
C545        C883   1.557       .  S
C545        C963   1.562       .  S
C545        C993   1.567       .  S
C546        C753   1.555       .  S
C546        C860   1.563       .  S
C546        C923   1.565       .  S
C546       C1020   1.554       .  S
C547        C740   1.562       .  S
C547        C823   1.572       .  S
C547        C903   1.559       .  S
C547        C973   1.567       .  S
C548        C549   1.566       .  S
C548        C554   1.572       .  S
C548        C552   1.572       .  S
C548        C800   1.537       .  S
C549        H556   1.076       .  S
C549        C550   1.353       .  D
C550        C551   1.523       .  S
C550        C618   1.485       .  S
C551        C555   1.526       .  S
C551        C553   1.520       .  S
C551        H557   1.104       .  S
C552        H558   1.085       .  S
C552        C553   1.366       .  D
C553        C647   1.492       .  S
C554        H559   1.085       .  S
C554        C555   1.368       .  D
C555        C670   1.496       .  S
C560        C561   1.566       .  S
C560        C566   1.574       .  S
C560        C564   1.576       .  S
C560        C773   1.531       .  S
C561        H568   1.086       .  S
C561        C562   1.361       .  D
C562        C563   1.525       .  S
C562        C672   1.491       .  S
C563        C567   1.522       .  S
C563        C565   1.522       .  S
C563        H569   1.098       .  S
C564        H570   1.081       .  S
C564        C565   1.361       .  D
C565        C644   1.494       .  S
C566        H571   1.085       .  S
C566        C567   1.367       .  D
C567        C725   1.500       .  S
C572        C573   1.566       .  S
C572        C578   1.566       .  S
C572        C576   1.568       .  S
C572        C793   1.525       .  S
C573        H580   1.085       .  S
C573        C574   1.365       .  D
C574        C575   1.529       .  S
C574        C711   1.497       .  S
C575        C579   1.523       .  S
C575        C577   1.523       .  S
C575        H581   1.103       .  S
C576        H582   1.085       .  S
C576        C577   1.363       .  D
C577        C620   1.488       .  S
C578        H583   1.080       .  S
C578        C579   1.355       .  D
C579        C673   1.480       .  S
C584        C585   1.577       .  S
C584        C590   1.560       .  S
C584        C588   1.573       .  S
C584        C780   1.541       .  S
C585        H592   1.085       .  S
C585        C586   1.373       .  D
C586        C587   1.525       .  S
C586        C621   1.502       .  S
C587        C591   1.517       .  S
C587        C589   1.524       .  S
C587        H593   1.103       .  S
C588        H594   1.085       .  S
C588        C589   1.368       .  D
C589        C697   1.493       .  S
C590        H595   1.074       .  S
C590        C591   1.346       .  D
C591        C645   1.472       .  S
C596        C597   1.563       .  S
C596        C602   1.569       .  S
C596        C600   1.574       .  S
C596        C750   1.530       .  S
C597        H604   1.086       .  S
C597        C598   1.360       .  D
C598        C599   1.526       .  S
C598        C619   1.487       .  S
C599        C603   1.525       .  S
C599        C601   1.523       .  S
C599        H605   1.102       .  S
C600        H606   1.080       .  S
C600        C601   1.363       .  D
C601        C712   1.493       .  S
C602        H607   1.085       .  S
C602        C603   1.366       .  D
C603        C699   1.493       .  S
O608        V616   1.853   1_455  S
O608        C618   1.255       .  A
O609        V616   1.848       .  S
O609        C619   1.253   1_545  A
O610        V616   1.853       .  S
O610        C620   1.256       .  A
O611        V616   1.858   1_565  S
O611        C621   1.258   1_655  A
O612        V617   1.964   1_465  S
O612        C621   1.278       .  A
O613        V617   1.956       .  S
O613        C620   1.277       .  A
O614        V617   1.958   1_565  S
O614        C619   1.279       .  A
O615        V617   1.951   1_455  S
O615        C618   1.278       .  A
V616        V617   2.037       .  T
C622        C623   1.573       .  S
C622        C628   1.567       .  S
C622        C626   1.568       .  S
C622        C743   1.536       .  S
C623        H630   1.085       .  S
C623        C624   1.372       .  D
C624        C625   1.525       .  S
C624        C646   1.499       .  S
C625        C629   1.523       .  S
C625        C627   1.521       .  S
C625        H631   1.102       .  S
C626        H632   1.077       .  S
C626        C627   1.355       .  D
C627        C698   1.484       .  S
C628        H633   1.085       .  S
C628        C629   1.363       .  D
C629        C727   1.490       .  S
O634        V642   1.959   1_556  S
O634        C644   1.276       .  A
O635        V642   1.938   1_565  S
O635        C645   1.276       .  A
O636        V642   1.961   1_566  S
O636        C646   1.278       .  A
O637        V642   1.951       .  S
O637        C647   1.274       .  A
O638        V643   1.860       .  S
O638        C647   1.259       .  A
O639        V643   1.855   1_566  S
O639        C646   1.257       .  A
O640        V643   1.847       .  S
O640        C645   1.253   1_545  A
O641        V643   1.845   1_556  S
O641        C644   1.254       .  A
V642        V643   2.048       .  T
C648        C649   1.572       .  S
C648        C654   1.565       .  S
C648        C652   1.571       .  S
C648        C763   1.533       .  S
C649        H656   1.085       .  S
C649        C650   1.368       .  D
C650        C651   1.522       .  S
C650        C713   1.494       .  S
C651        C655   1.527       .  S
C651        C653   1.524       .  S
C651        H657   1.102       .  S
C652        H658   1.080       .  S
C652        C653   1.358       .  D
C653        C671   1.487       .  S
C654        H659   1.085       .  S
C654        C655   1.362       .  D
C655        C726   1.494       .  S
O660        V668   1.845   1_455  S
O660        C670   1.255       .  A
O661        V668   1.844   1_556  S
O661        C671   1.254       .  A
O662        V668   1.837   1_456  S
O662        C672   1.253       .  A
O663        V668   1.845       .  S
O663        C673   1.254       .  A
O664        V669   1.947       .  S
O664        C673   1.275       .  A
O665        V669   1.959   1_456  S
O665        C672   1.277       .  A
O666        V669   1.955   1_556  S
O666        C671   1.277       .  A
O667        V669   1.963   1_455  S
O667        C670   1.277       .  A
V668        V669   2.046       .  T
C674        C675   1.567       .  S
C674        C680   1.575       .  S
C674        C678   1.567       .  S
C674        C730   1.539       .  S
C675        H682   1.085       .  S
C675        C676   1.364       .  D
C676        C677   1.526       .  S
C676        C696   1.493       .  S
C677        C681   1.525       .  S
C677        C679   1.527       .  S
C677        H683   1.104       .  S
C678        H684   1.085       .  S
C678        C679   1.366       .  D
C679        C710   1.492       .  S
C680        H685   1.081       .  S
C680        C681   1.364       .  D
C681        C724   1.496       .  S
O686        V694   1.858       .  S
O686        C696   1.257   1_554  A
O687        V694   1.854   1_455  S
O687        C697   1.256       .  A
O688        V694   1.852   1_556  S
O688        C698   1.255   1_655  A
O689        V694   1.854       .  S
O689        C699   1.256       .  A
O690        V695   1.957       .  S
O690        C699   1.277       .  A
O691        V695   1.948   1_456  S
O691        C698   1.276       .  A
O692        V695   1.959   1_455  S
O692        C697   1.278       .  A
O693        V695   1.955   1_556  S
O693        C696   1.277       .  A
V694        V695   2.043       .  T
O700        V708   1.852   1_556  S
O700        C710   1.255   1_545  A
O701        V708   1.852       .  S
O701        C711   1.256       .  A
O702        V708   1.859   1_565  S
O702        C712   1.257       .  A
O703        V708   1.856   1_556  S
O703        C713   1.258       .  A
O704        V709   1.957   1_556  S
O704        C713   1.276       .  A
O705        V709   1.956   1_565  S
O705        C712   1.277       .  A
O706        V709   1.963       .  S
O706        C711   1.279       .  A
O707        V709   1.960   1_566  S
O707        C710   1.278       .  A
V708        V709   2.041       .  T
O714        V722   1.861   1_565  S
O714        C724   1.258       .  A
O715        V722   1.854   1_455  S
O715        C725   1.257       .  A
O716        V722   1.850       .  S
O716        C726   1.256       .  A
O717        V722   1.852   1_455  S
O717        C727   1.256   1_545  A
O718        V723   1.957   1_465  S
O718        C727   1.277       .  A
O719        V723   1.960       .  S
O719        C726   1.278       .  A
O720        V723   1.965   1_455  S
O720        C725   1.278       .  A
O721        V723   1.958   1_565  S
O721        C724   1.279       .  A
V722        V723   2.038       .  T
C728        C733   1.568       .  S
C728        C853   1.562       .  S
C728        C893   1.567       .  S
C728        C983   1.569       .  S
C729        C730   1.409       .  A
C729        C734   1.401       .  A
C729        H736   1.076       .  S
C730        C731   1.409       .  A
C731        C732   1.401       .  A
C731        F738   1.358       .  S
C732        C733   1.416       .  A
C732        H737   1.079       .  S
C733        C734   1.417       .  A
C734        F735   1.357       .  S
C739        C740   1.418       .  A
C739        C744   1.399       .  A
C739        H746   1.076       .  S
C740        C741   1.412       .  A
C741        C742   1.398       .  A
C741        F748   1.358       .  S
C742        C743   1.413       .  A
C742        H747   1.069       .  S
C743        C744   1.405       .  A
C744        F745   1.358       .  S
C749        C750   1.408       .  A
C749        C754   1.398       .  A
C749        H756   1.075       .  S
C750        C751   1.408       .  A
C751        C752   1.396       .  A
C751        F758   1.358       .  S
C752        C753   1.414       .  A
C752        H757   1.079       .  S
C753        C754   1.414       .  A
C754        F755   1.357       .  S
C759        C760   1.415       .  A
C759        C764   1.397       .  A
C759        H766   1.078       .  S
C760        C761   1.415       .  A
C761        C762   1.398       .  A
C761        F768   1.358       .  S
C762        C763   1.410       .  A
C762        H767   1.075       .  S
C763        C764   1.408       .  A
C764        F765   1.358       .  S
C769        C770   1.413       .  A
C769        C774   1.399       .  A
C769        H776   1.078       .  S
C770        C771   1.417       .  A
C771        C772   1.396       .  A
C771        F778   1.358       .  S
C772        C773   1.407       .  A
C772        H777   1.076       .  S
C773        C774   1.410       .  A
C774        F775   1.358       .  S
C779        C780   1.403       .  A
C779        C784   1.398       .  A
C779        H786   1.084       .  S
C780        C781   1.423       .  A
C781        C782   1.395       .  A
C781        F788   1.350       .  S
C782        C783   1.404       .  A
C782        H787   1.084       .  S
C783        C784   1.425       .  A
C784        F785   1.356       .  S
C789        C790   1.416       .  A
C789        C794   1.393       .  A
C789        H796   1.078       .  S
C790        C791   1.414       .  A
C791        C792   1.395       .  A
C791        F798   1.358       .  S
C792        C793   1.409       .  A
C792        H797   1.075       .  S
C793        C794   1.404       .  A
C794        F795   1.358       .  S
C799        C800   1.406       .  A
C799        C804   1.397       .  A
C799        H806   1.083       .  S
C800        C801   1.418       .  A
C801        C802   1.395       .  A
C801        F808   1.350       .  S
C802        C803   1.408       .  A
C802        H807   1.084       .  S
C803        C804   1.420       .  A
C804        F805   1.355       .  S
C809        C810   1.407       .  A
C809        C814   1.398       .  A
C809        H816   1.076       .  S
C810        C811   1.410       .  A
C811        C812   1.397       .  A
C811        F818   1.358       .  S
C812        C813   1.413       .  A
C812        H817   1.078       .  S
C813        C814   1.417       .  A
C814        F815   1.358       .  S
C819        C820   1.411       .  A
C819        C824   1.405       .  A
C819        H826   1.077       .  S
C820        C821   1.409       .  A
C821        C822   1.400       .  A
C821        F828   1.358       .  S
C822        C823   1.415       .  A
C822        H827   1.078       .  S
C823        C824   1.418       .  A
C824        F825   1.358       .  S
C829        C830   1.407       .  A
C829        C834   1.395       .  A
C829        H836   1.076       .  S
C830        C831   1.409       .  A
C831        C832   1.397       .  A
C831        F838   1.358       .  S
C832        C833   1.411       .  A
C832        H837   1.079       .  S
C833        C834   1.417       .  A
C834        F835   1.358       .  S
C839        C840   1.419       .  A
C839        C844   1.397       .  A
C839        H846   1.078       .  S
C840        C841   1.410       .  A
C841        C842   1.395       .  A
C841        F848   1.357       .  S
C842        C843   1.412       .  A
C842        H847   1.073       .  S
C843        C844   1.405       .  A
C844        F845   1.358       .  S
C849        C850   1.407       .  A
C849        C854   1.402       .  A
C849        H856   1.077       .  S
C850        C851   1.411       .  A
C851        C852   1.398       .  A
C851        F858   1.358       .  S
C852        C853   1.412       .  A
C852        H857   1.078       .  S
C853        C854   1.420       .  A
C854        F855   1.357       .  S
C859        C860   1.414       .  A
C859        C864   1.394       .  A
C859        H866   1.078       .  S
C860        C861   1.416       .  A
C861        C862   1.396       .  A
C861        F868   1.358       .  S
C862        C863   1.409       .  A
C862        H867   1.075       .  S
C863        C864   1.406       .  A
C864        F865   1.358       .  S
C869        C870   1.411       .  A
C869        C874   1.398       .  A
C869        H876   1.076       .  S
C870        C871   1.407       .  A
C871        C872   1.399       .  A
C871        F878   1.358       .  S
C872        C873   1.417       .  A
C872        H877   1.079       .  S
C873        C874   1.414       .  A
C874        F875   1.358       .  S
C879        C880   1.407       .  A
C879        C884   1.395       .  A
C879        H886   1.076       .  S
C880        C881   1.410       .  A
C881        C882   1.400       .  A
C881        F888   1.358       .  S
C882        C883   1.413       .  A
C882        H887   1.078       .  S
C883        C884   1.416       .  A
C884        F885   1.357       .  S
C889        C890   1.406       .  A
C889        C894   1.399       .  A
C889        H896   1.083       .  S
C890        C891   1.417       .  A
C891        C892   1.401       .  A
C891        F898   1.351       .  S
C892        C893   1.412       .  A
C892        H897   1.083       .  S
C893        C894   1.422       .  A
C894        F895   1.355       .  S
C899        C900   1.405       .  A
C899        C904   1.391       .  A
C899        H906   1.076       .  S
C900        C901   1.408       .  A
C901        C902   1.398       .  A
C901        F908   1.358       .  S
C902        C903   1.414       .  A
C902        H907   1.078       .  S
C903        C904   1.417       .  A
C904        F905   1.357       .  S
C909        C910   1.407       .  A
C909        C914   1.398       .  A
C909        H916   1.077       .  S
C910        C911   1.409       .  A
C911        C912   1.397       .  A
C911        F918   1.358       .  S
C912        C913   1.414       .  A
C912        H917   1.078       .  S
C913        C914   1.417       .  A
C914        F915   1.358       .  S
C919        C920   1.409       .  A
C919        C924   1.401       .  A
C919        H926   1.083       .  S
C920        C921   1.415       .  A
C921        C922   1.397       .  A
C921        F928   1.351       .  S
C922        C923   1.410       .  A
C922        H927   1.084       .  S
C923        C924   1.420       .  A
C924        F925   1.356       .  S
C929        C930   1.409       .  A
C929        C934   1.400       .  A
C929        H936   1.077       .  S
C930        C931   1.408       .  A
C931        C932   1.397       .  A
C931        F938   1.358       .  S
C932        C933   1.415       .  A
C932        H937   1.079       .  S
C933        C934   1.416       .  A
C934        F935   1.357       .  S
C939        C940   1.404       .  A
C939        C944   1.397       .  A
C939        H946   1.083       .  S
C940        C941   1.419       .  A
C941        C942   1.396       .  A
C941        F948   1.352       .  S
C942        C943   1.408       .  A
C942        H947   1.084       .  S
C943        C944   1.422       .  A
C944        F945   1.355       .  S
C949        C950   1.413       .  A
C949        C954   1.400       .  A
C949        H956   1.079       .  S
C950        C951   1.416       .  A
C951        C952   1.393       .  A
C951        F958   1.358       .  S
C952        C953   1.407       .  A
C952        H957   1.078       .  S
C953        C954   1.410       .  A
C954        F955   1.358       .  S
C959        C960   1.403       .  A
C959        C964   1.398       .  A
C959        H966   1.083       .  S
C960        C961   1.420       .  A
C961        C962   1.392       .  A
C961        F968   1.350       .  S
C962        C963   1.405       .  A
C962        H967   1.084       .  S
C963        C964   1.424       .  A
C964        F965   1.355       .  S
C969        C970   1.406       .  A
C969        C974   1.399       .  A
C969        H976   1.084       .  S
C970        C971   1.417       .  A
C971        C972   1.399       .  A
C971        F978   1.351       .  S
C972        C973   1.412       .  A
C972        H977   1.084       .  S
C973        C974   1.422       .  A
C974        F975   1.354       .  S
C979        C980   1.409       .  A
C979        C984   1.404       .  A
C979        H986   1.077       .  S
C980        C981   1.409       .  A
C981        C982   1.398       .  A
C981        F988   1.358       .  S
C982        C983   1.414       .  A
C982        H987   1.078       .  S
C983        C984   1.419       .  A
C984        F985   1.358       .  S
C989        C990   1.413       .  A
C989        C994   1.394       .  A
C989        H996   1.074       .  S
C990        C991   1.406       .  A
C991        C992   1.404       .  A
C991        F998   1.358       .  S
C992        C993   1.421       .  A
C992        H997   1.078       .  S
C993        C994   1.411       .  A
C994        F995   1.357       .  S
C999       C1000   1.408       .  A
C999       C1004   1.391       .  A
C999       H1006   1.075       .  S
C1000      C1001   1.407       .  A
C1001      C1002   1.397       .  A
C1001      F1008   1.358       .  S
C1002      C1003   1.414       .  A
C1002      H1007   1.078       .  S
C1003      C1004   1.414       .  A
C1004      F1005   1.358       .  S
C1009      C1010   1.404       .  A
C1009      C1014   1.398       .  A
C1009      H1016   1.078       .  S
C1010      C1011   1.411       .  A
C1011      C1012   1.396       .  A
C1011      F1018   1.358       .  S
C1012      C1013   1.410       .  A
C1012      H1017   1.079       .  S
C1013      C1014   1.419       .  A
C1014      F1015   1.357       .  S
C1019      C1020   1.407       .  A
C1019      C1024   1.391       .  A
C1019      H1026   1.084       .  S
C1020      C1021   1.421       .  A
C1021      C1022   1.398       .  A
C1021      F1028   1.355       .  S
C1022      C1023   1.406       .  A
C1022      H1027   1.084       .  S
C1023      C1024   1.417       .  A
C1024      F1025   1.350       .  S
C1029      C1030   1.407       .  A
C1029      C1034   1.400       .  A
C1029      H1036   1.077       .  S
C1030      C1031   1.408       .  A
C1031      C1032   1.393       .  A
C1031      F1038   1.358       .  S
C1032      C1033   1.412       .  A
C1032      H1037   1.077       .  S
C1033      C1034   1.417       .  A
C1034      F1035   1.358       .  S
C1039      C1040   1.419       .  A
C1039      C1044   1.405       .  A
C1039      H1046   1.080       .  S
C1040      C1041   1.412       .  A
C1041      C1042   1.397       .  A
C1041      F1048   1.357       .  S
C1042      C1043   1.412       .  A
C1042      H1047   1.076       .  S
C1043      C1044   1.409       .  A
C1044      F1045   1.358       .  S
