geometry optimzed in LAMMPS
_audit_creation_date              2020-11-30 
_audit_creation_method            'lammps2cif' 
_symmetry_space_group_name_H-M    'P1' 
_symmetry_Int_Tables_number       1 
_symmetry_cell_setting            triclinic 
loop_ 
_symmetry_equiv_pos_as_xyz 
  x,y,z 
_cell_length_a                    68.85742913 
_cell_length_b                    68.8642470805773 
_cell_length_c                    36.98705162271007 
_cell_angle_alpha                 89.9996443248493 
_cell_angle_beta                  89.99891388036927 
_cell_angle_gamma                 119.99273494189866 
loop_ 
_atom_site_label 
_atom_site_type_symbol 
_atom_site_fract_x 
_atom_site_fract_y 
_atom_site_fract_z 
_atom_site_charge 
O1          O  0.71655277  0.24224904  0.21164424    -0.70500
O2          O  0.75770057  0.28341587  0.28835283    -0.71500
O3          O  0.75769954  0.28341483  0.21164103    -0.60100
O4          O  0.71655381  0.24225014  0.28835736    -0.68500
O5          O  0.73519704  0.22360945  0.28838831    -0.68000
O6          O  0.77637472  0.26480613  0.21160795    -0.59300
O7          O  0.77637573  0.26480716  0.28838521    -0.71800
O8          O  0.73519602  0.22360837  0.21161255    -0.70600
Cu9        Cu  0.73647000  0.26348794  0.24999887     1.04600
Cu10       Cu  0.75644845  0.24354623  0.24999847     1.04300
C11         C  0.71949343  0.22655441  0.19954125     0.95700
C12         C  0.77340942  0.28049592  0.30045591     0.94900
C13         C  0.77340812  0.28049460  0.19953647     0.87000
C14         C  0.71949478  0.22655585  0.30046121     0.93300
N15         N  0.49682110  0.83696326  0.42577811    -0.24800
N16         N  0.49582095  0.82008994  0.44438203    -0.32700
C17         C  0.49545113  0.80481965  0.42140828     0.03500
C18         C  0.49625298  0.81245817  0.38675446     0.09500
C19         C  0.49711376  0.83284851  0.39023046    -0.03600
H20         H  0.49474427  0.78936701  0.42942238     0.10200
H21         H  0.49796095  0.84387779  0.36869151     0.11400
Cu22       Cu  0.49533221  0.81848108  0.99999826     0.44200
Cu23       Cu  0.49791189  0.86461338  0.45039862     0.42000
Cu24       Cu  0.49791200  0.86461300  0.04959776     0.43900
N25         N  0.49582103  0.82008948  0.05561454    -0.32200
N26         N  0.49682124  0.83696265  0.07421838    -0.26500
C27         C  0.49711394  0.83284765  0.10976606    -0.02600
C28         C  0.49625314  0.81245726  0.11324207     0.09600
C29         C  0.49545122  0.80481897  0.07858828     0.03400
H30         H  0.49796115  0.84387670  0.13130483     0.11100
H31         H  0.49474430  0.78936658  0.07057427     0.10200
N32         N  0.49894606  0.89004412  0.01790399    -0.33700
N33         N  0.49894601  0.89004421  0.48209237    -0.25800
C34         C  0.49960681  0.90884947  0.47026105    -0.01100
C35         C  0.50006660  0.92116389  0.99999818     0.07500
C36         C  0.49960685  0.90884929  0.02973527     0.05600
H37         H  0.49965016  0.91315110  0.44210602     0.10700
H38         H  0.49965025  0.91315076  0.05789043     0.09600
N39         N  0.33979471  0.83546676  0.42576305    -0.24800
N40         N  0.32430421  0.81829684  0.44436820    -0.32700
C41         C  0.30946865  0.80294871  0.42141467     0.03500
C42         C  0.31594860  0.81084710  0.38677333     0.09500
C43         C  0.33519868  0.83147272  0.39023964    -0.03600
H44         H  0.29496097  0.78730300  0.42944107     0.10200
H45         H  0.34503013  0.84276793  0.36871525     0.11400
Cu46       Cu  0.32343630  0.81653850  0.49999047     0.44200
Cu47       Cu  0.36604102  0.86338516  0.45037165     0.42000
Cu48       Cu  0.36603974  0.86338345  0.04960816     0.43900
N49         N  0.32430278  0.81829531  0.05561275    -0.32200
N50         N  0.33979294  0.83546474  0.07421747    -0.26500
C51         C  0.33519627  0.83147004  0.10974105    -0.02600
C52         C  0.31594606  0.81084443  0.11320785     0.09600
C53         C  0.30946667  0.80294671  0.07856666     0.03400
H54         H  0.34502734  0.84276473  0.13126504     0.11100
H55         H  0.29495925  0.78730136  0.07054072     0.10200
N56         N  0.39026216  0.88894835  0.01789630    -0.33700
N57         N  0.39026269  0.88894912  0.48208376    -0.25800
C58         C  0.40828830  0.90785655  0.47025319    -0.01100
C59         C  0.42006513  0.92023405  0.49999057     0.07500
C60         C  0.40828736  0.90785534  0.02972754     0.05600
H61         H  0.41250883  0.91219441  0.44209775     0.10700
H62         H  0.41250690  0.91219202  0.05788290     0.09600
N63         N  0.50187964  0.16433224  0.42578083    -0.24800
N64         N  0.50292518  0.18122660  0.44438290    -0.32700
C65         C  0.50331642  0.19650681  0.42140810     0.03500
C66         C  0.50248114  0.18885252  0.38675592     0.09500
C67         C  0.50157871  0.16844302  0.39023373    -0.03600
H68         H  0.50405914  0.21197635  0.42942051     0.10200
H69         H  0.50069740  0.15739780  0.36869606     0.11400
Cu70       Cu  0.50343501  0.18284539  0.49999820     0.44200
Cu71       Cu  0.50073978  0.13665965  0.45040116     0.42000
Cu72       Cu  0.50073990  0.13665933  0.04959554     0.43900
N73         N  0.50292535  0.18122626  0.05561344    -0.32200
N74         N  0.50187984  0.16433184  0.07421559    -0.26500
C75         C  0.50157898  0.16844242  0.10976281    -0.02600
C76         C  0.50248145  0.18885194  0.11324037     0.09600
C77         C  0.50331666  0.19650640  0.07858817     0.03400
H78         H  0.50069769  0.15739730  0.13130015     0.11100
H79         H  0.50405936  0.21197591  0.07057567     0.10200
N80         N  0.49968130  0.11121701  0.01790412    -0.33700
N81         N  0.49968128  0.11121715  0.48209260    -0.25800
C82         C  0.49901597  0.09241006  0.47026122    -0.01100
C83         C  0.49855350  0.08009435  0.99999837     0.07500
C84         C  0.49901599  0.09240980  0.02973547     0.05600
H85         H  0.49897821  0.08811118  0.44210559     0.10700
H86         H  0.49897824  0.08811071  0.05789100     0.09600
N87         N  0.65889486  0.16578602  0.07423769    -0.24800
N88         N  0.67437110  0.18296419  0.05562856    -0.32700
C89         C  0.68920889  0.19831501  0.07857734     0.03500
C90         C  0.68274643  0.19041070  0.11322098     0.09500
C91         C  0.66350309  0.16977785  0.10975940    -0.03600
H92         H  0.70370671  0.21396720  0.07054594     0.10200
H93         H  0.65368380  0.15847703  0.13128618     0.11400
Cu94       Cu  0.67522192  0.18472707  0.00000375     0.44200
Cu95       Cu  0.63264879  0.13786261  0.04962941     0.42000
Cu96       Cu  0.63265000  0.13786385  0.45037993     0.43900
N97         N  0.67437223  0.18296537  0.44437892    -0.32200
N98         N  0.65889636  0.16578756  0.42577049    -0.26500
C99         C  0.66350507  0.16977988  0.39024850    -0.02600
C100        C  0.68274841  0.19041276  0.38678612     0.09600
C101        C  0.68921045  0.19831665  0.42142950     0.03400
H102        H  0.65368618  0.15847950  0.36872240     0.11100
H103        H  0.70370770  0.21396828  0.42946006     0.10200
N104        N  0.60841840  0.11230617  0.48209826    -0.33700
N105        N  0.60841789  0.11230565  0.01791130    -0.25800
C106        C  0.59038304  0.09340542  0.02974164    -0.01100
C107        C  0.57859967  0.08103226  0.00000444     0.07500
C108        C  0.59038392  0.09340632  0.47026768     0.05600
H109        H  0.58616049  0.08906963  0.05789652     0.10700
H110        H  0.58616224  0.08907142  0.44211277     0.09600
C111        C  0.47902081  0.98007550  0.49999518     0.04700
C112        C  0.49963143  0.98035415  0.49999786     0.04700
C113        C  0.51979225  0.00091514  0.00000050    -0.15800
C114        C  0.51962982  0.02119954  0.50000054     0.04700
C115        C  0.49901844  0.02091997  0.49999803     0.04700
C116        C  0.47885801  0.00035919  0.49999530    -0.15800
H117        H  0.46299756  0.00014265  0.49999331     0.06800
H118        H  0.53565268  0.00113125  0.00000247     0.06800
O119        O  0.28068974  0.52242909  0.28833516    -0.70500
O120        O  0.23927320  0.52191879  0.21164993    -0.71500
O121        O  0.23927425  0.52191875  0.28833919    -0.60100
O122        O  0.28068865  0.52242912  0.21164701    -0.68500
O123        O  0.26240853  0.48515162  0.21162602    -0.68000
O124        O  0.22097349  0.48464104  0.28835918    -0.59300
O125        O  0.22097245  0.48464109  0.21163191    -0.71800
O126        O  0.26240960  0.48515160  0.28835827    -0.70600
Cu127      Cu  0.26062677  0.52348856  0.24999279     1.04600
Cu128      Cu  0.24104237  0.48357369  0.24999388     1.04300
C129        C  0.27797315  0.50387604  0.30042056     0.95700
C130        C  0.22370397  0.50320707  0.19956982     0.94900
C131        C  0.22370531  0.50320701  0.30042128     0.87000
C132        C  0.27797170  0.50387607  0.19956158     0.93300
O133        O  0.26351247  0.77768387  0.28837849    -0.70500
O134        O  0.22231614  0.73650654  0.21161294    -0.71500
O135        O  0.22231755  0.73650804  0.28838406    -0.60100
O136        O  0.26351106  0.77768238  0.21160926    -0.68500
O137        O  0.28212902  0.75901601  0.21163985    -0.68000
O138        O  0.24096720  0.71787337  0.28835110    -0.59300
O139        O  0.24096576  0.71787185  0.21164521    -0.71800
O140        O  0.28213043  0.75901750  0.28834723    -0.70600
Cu141      Cu  0.24225259  0.75775777  0.24999621     1.04600
Cu142      Cu  0.26220395  0.73778819  0.24999583     1.04300
C143        C  0.27920486  0.77472168  0.30044865     0.95700
C144        C  0.22526707  0.72080807  0.19954363     0.94900
C145        C  0.22526895  0.72081004  0.30045442     0.87000
C146        C  0.27920302  0.77471973  0.19953736     0.93300
N147        N  0.16278077  0.50261642  0.07420628    -0.24800
N148        N  0.17961392  0.50352007  0.05560848    -0.32700
C149        C  0.19486519  0.50385452  0.07858858     0.03500
C150        C  0.18725498  0.50312959  0.11323912     0.09500
C151        C  0.16690299  0.50235257  0.10975637    -0.03600
H152        H  0.21029017  0.50449629  0.07058150     0.10200
H153        H  0.15590840  0.50159017  0.13129270     0.11400
Cu154      Cu  0.18121206  0.50396427  0.49999718     0.44200
Cu155      Cu  0.13517918  0.50163080  0.04958577     0.42000
Cu156      Cu  0.13518010  0.50163085  0.45040976     0.43900
N157        N  0.17961485  0.50352011  0.44438601    -0.32200
N158        N  0.16278197  0.50261646  0.42578858    -0.26500
C159        C  0.16690469  0.50235258  0.39023853    -0.02600
C160        C  0.18725661  0.50312954  0.38675516     0.09600
C161        C  0.19486646  0.50385450  0.42140555     0.03400
H162        H  0.15591010  0.50159016  0.36870197     0.11100
H163        H  0.21029102  0.50449623  0.42941208     0.10200
N164        N  0.10978625  0.50068677  0.48209242    -0.33700
N165        N  0.10978583  0.50068669  0.01790340    -0.25800
C166        C  0.09100781  0.50008691  0.02973518    -0.01100
C167        C  0.07871135  0.49966705  0.49999792     0.07500
C168        C  0.09100849  0.50008705  0.47026061     0.05600
H169        H  0.08671138  0.50005516  0.05789087     0.10700
H170        H  0.08671271  0.50005534  0.44210524     0.09600
N171        N  0.16454535  0.66018669  0.07423239    -0.24800
N172        N  0.18168749  0.67571375  0.05562484    -0.32700
C173        C  0.19702009  0.69056744  0.07857750     0.03500
C174        C  0.18914038  0.68406211  0.11322114     0.09500
C175        C  0.16854238  0.66477688  0.10975712    -0.03600
H176        H  0.21264340  0.70510294  0.07054929     0.10200
H177        H  0.15726830  0.65491688  0.13128394     0.11400
Cu178      Cu  0.18343358  0.67659903  0.50000151     0.44200
Cu179      Cu  0.13665893  0.63389969  0.04962333     0.42000
Cu180      Cu  0.13666043  0.63390124  0.45038086     0.43900
N181        N  0.18168895  0.67571528  0.44437816    -0.32200
N182        N  0.16454723  0.66018865  0.42577107    -0.26500
C183        C  0.16854492  0.66477951  0.39024625    -0.02600
C184        C  0.18914293  0.68406475  0.38678162     0.09600
C185        C  0.19702208  0.69056949  0.42142508     0.03400
H186        H  0.15727121  0.65491990  0.36871976     0.11100
H187        H  0.21264488  0.70510450  0.42945266     0.10200
N188        N  0.11112286  0.60964629  0.48209556    -0.33700
N189        N  0.11112221  0.60964565  0.01790828    -0.25800
C190        C  0.09222527  0.59160709  0.02973872    -0.01100
C191        C  0.07985492  0.57982120  0.50000132     0.07500
C192        C  0.09222644  0.59160822  0.47026461     0.05600
H193        H  0.08788361  0.58739113  0.05789390     0.10700
H194        H  0.08788575  0.58739324  0.44210865     0.09600
N195        N  0.83412342  0.34114998  0.07422780    -0.24800
N196        N  0.81696733  0.32564347  0.05561931    -0.32700
C197        C  0.80163195  0.31078830  0.07856953     0.03500
C198        C  0.80952350  0.31727035  0.11321367     0.09500
C199        C  0.83013238  0.33654404  0.10975080    -0.03600
H200        H  0.78599997  0.29626546  0.07053894     0.10200
H201        H  0.84141877  0.34638457  0.13127772     0.11400
Cu202      Cu  0.81521276  0.32477776  0.49999397     0.44200
Cu203      Cu  0.86202173  0.36742912  0.04961692     0.42000
Cu204      Cu  0.86202260  0.36743009  0.45036854     0.43900
N205        N  0.81696823  0.32564451  0.44436853    -0.32200
N206        N  0.83412453  0.34115125  0.42575916    -0.26500
C207        C  0.83013389  0.33654576  0.39023632    -0.02600
C208        C  0.80952503  0.31727212  0.38677457     0.09600
C209        C  0.80163310  0.31078964  0.42141911     0.03400
H210        H  0.84142046  0.34638648  0.36870897     0.11100
H211        H  0.78600103  0.29626669  0.42945053     0.10200
N212        N  0.88756757  0.39167884  0.48208584    -0.33700
N213        N  0.88756722  0.39167845  0.01789886    -0.25800
C214        C  0.90646838  0.40971244  0.02972893    -0.01100
C215        C  0.91884323  0.42149689  0.49999206     0.07500
C216        C  0.90646898  0.40971310  0.47025535     0.05600
H217        H  0.91081008  0.41392664  0.05788424     0.10700
H218        H  0.91081124  0.41392795  0.44209993     0.09600
N219        N  0.83582239  0.49845155  0.07419302    -0.24800
N220        N  0.81893294  0.49742705  0.05560007    -0.32700
C221        C  0.80365539  0.49703595  0.07858326     0.03500
C222        C  0.81130782  0.49784958  0.11322958     0.09500
C223        C  0.83171151  0.49873856  0.10974193    -0.03600
H224        H  0.78818815  0.49630488  0.07058060     0.10200
H225        H  0.84275181  0.49959864  0.13127411     0.11400
Cu226      Cu  0.81731084  0.49693243  0.49999074     0.44200
Cu227      Cu  0.86348656  0.49957347  0.04957273     0.42000
Cu228      Cu  0.86348772  0.49957330  0.45040755     0.43900
N229        N  0.81893407  0.49742687  0.44438134    -0.32200
N230        N  0.83582365  0.49845130  0.42578808    -0.26500
C231        C  0.83171325  0.49873827  0.39023899    -0.02600
C232        C  0.81130957  0.49784935  0.38675208     0.09600
C233        C  0.80365673  0.49703578  0.42139857     0.03400
H234        H  0.84275331  0.49959828  0.36870742     0.11100
H235        H  0.78818984  0.49630481  0.42940148     0.10200
N236        N  0.88891781  0.50059641  0.48208511    -0.33700
N237        N  0.88891731  0.50059647  0.01789566    -0.25800
C238        C  0.90770848  0.50122542  0.02972821    -0.01100
C239        C  0.92001421  0.50166439  0.49999101     0.07500
C240        C  0.90770934  0.50122528  0.47025329     0.05600
H241        H  0.91200075  0.50124984  0.05788374     0.10700
H242        H  0.91200246  0.50124954  0.44209783     0.09600
C243        C  0.01995204  0.52092505  0.49999737     0.04700
C244        C  0.01960815  0.50028466  0.49999664     0.04700
C245        C  0.99901343  0.48015866  0.49999490    -0.15800
C246        C  0.97875929  0.48038531  0.49999375     0.04700
C247        C  0.97910488  0.50102675  0.49999416     0.04700
C248        C  0.99969887  0.52115183  0.49999606    -0.15800
H249        H  0.99996511  0.53703504  0.49999652     0.06800
H250        H  0.99874741  0.46427580  0.49999450     0.06800
O251        O  0.52124435  0.24086902  0.28834462    -0.70500
O252        O  0.52173651  0.28227332  0.21164809    -0.71500
O253        O  0.52173643  0.28227371  0.28834231    -0.60100
O254        O  0.52124446  0.24086863  0.21164857    -0.68500
O255        O  0.48396333  0.22255740  0.21163125    -0.68000
O256        O  0.48445551  0.26398322  0.28836630    -0.59300
O257        O  0.48445560  0.26398283  0.21162691    -0.71800
O258        O  0.48396322  0.22255779  0.28836472    -0.70600
Cu259      Cu  0.52280500  0.26221675  0.24999584     1.04600
Cu260      Cu  0.48288681  0.24262132  0.24999735     1.04300
C261        C  0.50253365  0.22529661  0.30042827     0.95700
C262        C  0.50317908  0.27954967  0.19956132     0.94900
C263        C  0.50317896  0.27955016  0.30043007     0.87000
C264        C  0.50253380  0.22529610  0.19956674     0.93300
O265        O  0.71786913  0.47849363  0.28833976    -0.70500
O266        O  0.75929824  0.47903793  0.21165047    -0.71500
O267        O  0.75929911  0.47903779  0.28833677    -0.60100
O268        O  0.71786829  0.47849372  0.21165375    -0.68500
O269        O  0.73612505  0.51577111  0.21163017    -0.68000
O270        O  0.77757701  0.51631544  0.28835514    -0.59300
O271        O  0.77757612  0.51631558  0.21163016    -0.71800
O272        O  0.73612593  0.51577101  0.28836150    -0.70600
Cu273      Cu  0.73793917  0.47745113  0.24999522     1.07600
Cu274      Cu  0.75749892  0.51736610  0.24999422     1.04300
C275        C  0.72057249  0.49704118  0.30042596     0.95700
C276        C  0.77485756  0.49775478  0.19956813     0.94900
C277        C  0.77485874  0.49775462  0.30041714     0.87000
C278        C  0.72057139  0.49704130  0.19956754     0.93300
O279        O  0.47715085  0.71907850  0.21165478    -0.70500
O280        O  0.47755703  0.76044260  0.28834882    -0.71500
O281        O  0.47755703  0.76044191  0.21165110    -0.60100
O282        O  0.47715087  0.71907922  0.28834886    -0.68500
O283        O  0.51443240  0.73742827  0.28836966    -0.68000
O284        O  0.51483868  0.77881122  0.21163146    -0.59300
O285        O  0.51483868  0.77881191  0.28836545    -0.71800
O286        O  0.51443238  0.73742754  0.21163096    -0.70600
Cu287      Cu  0.47603929  0.73911290  0.25000093     1.04600
Cu288      Cu  0.51595807  0.75877082  0.24999932     1.04300
C289        C  0.49572196  0.72183733  0.19956792     0.95700
C290        C  0.49625488  0.77603799  0.30043027     0.94900
C291        C  0.49625488  0.77603712  0.19956762     0.87000
C292        C  0.49572197  0.72183829  0.30043483     0.93300
N293        N  0.33867576  0.50403960  0.42577993    -0.24800
N294        N  0.32290634  0.50523766  0.44437288    -0.32700
C295        C  0.30802758  0.50564601  0.42139199     0.03500
C296        C  0.31477340  0.50466278  0.38674880     0.09500
C297        C  0.33422228  0.50365163  0.39023647    -0.03600
H298        H  0.29332489  0.50643811  0.42939680     0.10200
H299        H  0.34428956  0.50258517  0.36871265     0.11400
Cu300      Cu  0.32181746  0.50578905  0.49998903     0.44200
Cu301      Cu  0.36511950  0.50274187  0.45039712     0.42000
Cu302      Cu  0.36511805  0.50274168  0.04958046     0.43900
N303        N  0.32290500  0.50523763  0.05560522    -0.32200
N304        N  0.33867409  0.50403949  0.07419805    -0.26500
C305        C  0.33422007  0.50365152  0.10974151    -0.02600
C306        C  0.31477119  0.50466274  0.11322947     0.09600
C307        C  0.30802594  0.50564604  0.07858633     0.03400
H308        H  0.34428705  0.50258497  0.13126536     0.11100
H309        H  0.29332321  0.50643822  0.07058163     0.10200
N310        N  0.38951743  0.50172055  0.01789443    -0.33700
N311        N  0.38951806  0.50172066  0.48208392    -0.25800
C312        C  0.40767610  0.50108539  0.47025144    -0.01100
C313        C  0.41953827  0.50064579  0.49999006     0.07500
C314        C  0.40767501  0.50108525  0.02972786     0.05600
H315        H  0.41192953  0.50103077  0.44209672     0.10700
H316        H  0.41192743  0.50103057  0.05788273     0.09600
N317        N  0.49570602  0.66119451  0.07422400    -0.24800
N318        N  0.49447177  0.67693984  0.05562368    -0.32700
C319        C  0.49402565  0.69180056  0.07859879     0.03500
C320        C  0.49502230  0.68506925  0.11324697     0.09500
C321        C  0.49608017  0.66564630  0.10976652    -0.03600
H322        H  0.49320015  0.70648260  0.07058683     0.10200
H323        H  0.49717015  0.65559606  0.13129567     0.11400
Cu324      Cu  0.49392469  0.67802150  0.50000231     0.44200
Cu325      Cu  0.49707126  0.63478796  0.04960596     0.42000
Cu326      Cu  0.49707124  0.63478884  0.45039810     0.43900
N327        N  0.49447179  0.67694072  0.44438088    -0.32200
N328        N  0.49570605  0.66119558  0.42578033    -0.26500
C329        C  0.49608021  0.66564768  0.39023779    -0.02600
C330        C  0.49502233  0.68507068  0.38675763     0.09600
C331        C  0.49402568  0.69180164  0.42140594     0.03400
H332        H  0.49717017  0.65559771  0.36870864     0.11100
H333        H  0.49320014  0.70648378  0.42941820     0.10200
N334        N  0.49814362  0.61042170  0.48209577    -0.33700
N335        N  0.49814364  0.61042137  0.01790711    -0.25800
C336        C  0.49881078  0.59228174  0.02973885    -0.01100
C337        C  0.49927109  0.58043128  0.50000051     0.07500
C338        C  0.49881075  0.59228237  0.47026311     0.05600
H339        H  0.49887038  0.58803115  0.05789415     0.10700
H340        H  0.49887032  0.58803232  0.44210700     0.09600
N341        N  0.50325064  0.34021760  0.07421421    -0.24800
N342        N  0.50453883  0.32450170  0.05561594    -0.32700
C343        C  0.50499871  0.30964832  0.07859164     0.03500
C344        C  0.50395515  0.31635385  0.11323779     0.09500
C345        C  0.50285434  0.33575349  0.10975559    -0.03600
H346        H  0.50585779  0.29498377  0.07058048     0.10200
H347        H  0.50171419  0.34577591  0.13128192     0.11400
Cu348      Cu  0.50511504  0.32343603  0.49999499     0.44200
Cu349      Cu  0.50183141  0.36659523  0.04959659     0.42000
Cu350      Cu  0.50183114  0.36659535  0.45039330     0.43900
N351        N  0.50453866  0.32450193  0.44437410    -0.32200
N352        N  0.50325040  0.34021788  0.42577583    -0.26500
C353        C  0.50285410  0.33575395  0.39023453    -0.02600
C354        C  0.50395499  0.31635437  0.38675237     0.09600
C355        C  0.50499859  0.30964869  0.42139846     0.03400
H356        H  0.50171390  0.34577647  0.36870820     0.11100
H357        H  0.50585774  0.29498407  0.42940967     0.10200
N358        N  0.50070812  0.39093585  0.48208930    -0.33700
N359        N  0.50070818  0.39093580  0.01790041    -0.25800
C360        C  0.50000962  0.40905872  0.02973280    -0.01100
C361        C  0.49952826  0.42089845  0.49999482     0.07500
C362        C  0.50000950  0.40905879  0.47025680     0.05600
H363        H  0.49994690  0.41330728  0.05788754     0.10700
H364        H  0.49994666  0.41330739  0.44210212     0.09600
N365        N  0.65989398  0.49690788  0.42579547    -0.24800
N366        N  0.67560978  0.49561100  0.44438356    -0.32700
C367        C  0.69046504  0.49515943  0.42139967     0.03500
C368        C  0.68375922  0.49621723  0.38676063     0.09500
C369        C  0.66435950  0.49731825  0.39025353    -0.03600
H370        H  0.70513116  0.49429797  0.42940065     0.10200
H371        H  0.65433798  0.49846906  0.36873389     0.11400
Cu372      Cu  0.67667754  0.49501946  0.49999849     0.44200
Cu373      Cu  0.63351350  0.49832171  0.45041290     0.42000
Cu374      Cu  0.63351289  0.49832184  0.04958516     0.43900
N375        N  0.67560906  0.49561114  0.05561333    -0.32200
N376        N  0.65989313  0.49690802  0.07420178    -0.26500
C377        C  0.66435823  0.49731841  0.10974367    -0.02600
C378        C  0.68375791  0.49621741  0.11323597     0.09600
C379        C  0.69046417  0.49515960  0.07859676     0.03400
H380        H  0.65433660  0.49846919  0.13126326     0.11100
H381        H  0.70512998  0.49429817  0.07059555     0.10200
N382        N  0.60916469  0.49943938  0.01790445    -0.33700
N383        N  0.60916496  0.49943938  0.48209423    -0.25800
C384        C  0.59103733  0.50013141  0.47026115    -0.01100
C385        C  0.57919460  0.50060889  0.49999960     0.07500
C386        C  0.59103692  0.50013145  0.02973780     0.05600
H387        H  0.58678657  0.50019007  0.44210630     0.10700
H388        H  0.58678576  0.50019023  0.05789298     0.09600
C389        C  0.47892698  0.50061751  0.49999442     0.04700
C390        C  0.49938794  0.52109229  0.49999746     0.04700
C391        C  0.51970039  0.52098830  0.49999917    -0.15800
C392        C  0.51983529  0.50069355  0.49999806     0.04700
C393        C  0.49937453  0.48021884  0.49999544     0.04700
C394        C  0.47906214  0.48032272  0.49999360    -0.15800
H395        H  0.46331643  0.46456635  0.49999150     0.06800
H396        H  0.53544620  0.53674443  0.50000131     0.06800
C397        C  0.55855458  0.50109101  0.49999967    -0.10800
C398        C  0.54107119  0.50117333  0.49999924    -0.12400
C399        C  0.49902934  0.44152830  0.49999466    -0.10800
C400        C  0.49892644  0.45899991  0.49999483    -0.12400
C401        C  0.49983784  0.54231195  0.49999882    -0.10800
C402        C  0.49974669  0.55978943  0.49999986    -0.12400
C403        C  0.45768990  0.50013558  0.49999223    -0.10800
C404        C  0.44019780  0.50020090  0.49999080    -0.12400
C405        C  0.49532469  0.69652615  0.35418493    -0.10800
C406        C  0.49555010  0.70753503  0.32871638    -0.12400
C407        C  0.49555008  0.70753360  0.17128757    -0.10800
C408        C  0.49532468  0.69652455  0.14581958    -0.12400
C409        C  0.70624794  0.49682154  0.17128508    -0.10800
C410        C  0.69522650  0.49655894  0.14581096    -0.12400
C411        C  0.70624945  0.49682137  0.32871017    -0.10800
C412        C  0.69522809  0.49655876  0.35418520    -0.12400
C413        C  0.50362908  0.30488658  0.35418143    -0.10800
C414        C  0.50338065  0.29386710  0.32871253    -0.12400
C415        C  0.50338083  0.29386642  0.17127809    -0.10800
C416        C  0.50362926  0.30488589  0.14580885    -0.12400
C417        C  0.80006059  0.49793135  0.35416288    -0.10800
C418        C  0.78915709  0.49791251  0.32869081    -0.12400
C419        C  0.80005855  0.49793157  0.14581920    -0.10800
C420        C  0.78915531  0.49791273  0.17129239    -0.12400
C421        C  0.94105846  0.50197559  0.49999167    -0.10800
C422        C  0.95851960  0.50184296  0.49999273    -0.12400
C423        C  0.94010546  0.44198922  0.49999196    -0.10800
C424        C  0.95781070  0.45932920  0.49999247    -0.12400
C425        C  0.04089799  0.54198157  0.49999938    -0.10800
C426        C  0.05859890  0.55932464  0.50000075    -0.12400
C427        C  0.05766367  0.49935075  0.49999785    -0.10800
C428        C  0.04019681  0.49947315  0.49999747    -0.12400
C429        C  0.20028062  0.69557628  0.14577182    -0.10800
C430        C  0.21107809  0.70657642  0.17124101    -0.12400
C431        C  0.21108084  0.70657930  0.32875988    -0.10800
C432        C  0.20028367  0.69557943  0.35423049    -0.12400
C433        C  0.29229074  0.50408336  0.17127924    -0.10800
C434        C  0.30330843  0.50433431  0.14580615    -0.12400
C435        C  0.30331093  0.50433429  0.35417253    -0.10800
C436        C  0.29229292  0.50408333  0.32870063    -0.12400
C437        C  0.20941066  0.50306017  0.32869535    -0.10800
C438        C  0.19850726  0.50304658  0.35416575    -0.12400
C439        C  0.19850525  0.50304666  0.14582823    -0.10800
C440        C  0.20940879  0.50306026  0.17129770    -0.12400
C441        C  0.54072026  0.04211129  0.50000287    -0.10800
C442        C  0.55808578  0.05979131  0.00000418    -0.12400
C443        C  0.50238620  0.20010232  0.14582421    -0.10800
C444        C  0.50239312  0.21100456  0.17129154    -0.12400
C445        C  0.50238591  0.20010308  0.35417201    -0.10800
C446        C  0.50239288  0.21100530  0.32870431    -0.12400
C447        C  0.49818785  0.05902494  0.99999825    -0.10800
C448        C  0.49826903  0.04153917  0.49999810    -0.12400
C449        C  0.30443828  0.79970218  0.35422328    -0.10800
C450        C  0.29344032  0.78890460  0.32875275    -0.12400
C451        C  0.30443530  0.79969903  0.14575842    -0.10800
C452        C  0.29343762  0.78890174  0.17123041    -0.12400
C453        C  0.45793122  0.95916432  0.49999266    -0.10800
C454        C  0.44057000  0.94148131  0.49999120    -0.12400
C455        C  0.49636711  0.79031522  0.17129210    -0.10800
C456        C  0.49635797  0.80121055  0.14582562    -0.12400
C457        C  0.49635789  0.80121176  0.35417093    -0.10800
C458        C  0.49636709  0.79031642  0.32870480    -0.12400
C459        C  0.50044604  0.94224040  0.99999813    -0.10800
C460        C  0.50037704  0.95973254  0.99999800    -0.12400
C461        C  0.79838572  0.30574261  0.14576174    -0.10800
C462        C  0.78759137  0.29473371  0.17122982    -0.12400
C463        C  0.79838760  0.30574466  0.35422716    -0.10800
C464        C  0.78759317  0.29473560  0.32876030    -0.12400
C465        C  0.70526439  0.21236576  0.32876924    -0.10800
C466        C  0.69426558  0.20156265  0.35423854    -0.12400
C467        C  0.70526237  0.21236359  0.17123578    -0.10800
C468        C  0.69426329  0.20156021  0.14576790    -0.12400
O469        O  0.71655276  0.24224900  0.71164432    -0.70500
O470        O  0.75770055  0.28341589  0.78835279    -0.71500
O471        O  0.75769951  0.28341480  0.71164104    -0.60100
O472        O  0.71655380  0.24225013  0.78835742    -0.68500
O473        O  0.73519703  0.22360944  0.78838832    -0.68000
O474        O  0.77637469  0.26480610  0.71160789    -0.59300
O475        O  0.77637573  0.26480719  0.78838515    -0.71800
O476        O  0.73519603  0.22360835  0.71161258    -0.70600
Cu477      Cu  0.73646999  0.26348793  0.74999889     1.04600
Cu478      Cu  0.75644844  0.24354622  0.74999847     1.04300
C479        C  0.71949342  0.22655438  0.69954129     0.95700
C480        C  0.77340943  0.28049597  0.80045583     0.94900
C481        C  0.77340810  0.28049458  0.69953645     0.87000
C482        C  0.71949477  0.22655583  0.80046124     0.93300
N483        N  0.49682109  0.83696324  0.92577804    -0.24800
N484        N  0.49582092  0.82008992  0.94438197    -0.32700
C485        C  0.49545108  0.80481961  0.92140823     0.03500
C486        C  0.49625293  0.81245812  0.88675440     0.09500
C487        C  0.49711373  0.83284847  0.89023039    -0.03600
H488        H  0.49474420  0.78936702  0.92942232     0.10200
H489        H  0.49796093  0.84387774  0.86869143     0.11400
Cu490      Cu  0.49533226  0.81848114  0.49999832     0.44200
Cu491      Cu  0.49791192  0.86461342  0.95039851     0.42000
Cu492      Cu  0.49791197  0.86461298  0.54959779     0.43900
N493        N  0.49582116  0.82008952  0.55561455    -0.32200
N494        N  0.49682129  0.83696270  0.57421850    -0.26500
C495        C  0.49711398  0.83284763  0.60976602    -0.02600
C496        C  0.49625322  0.81245729  0.61324208     0.09600
C497        C  0.49545136  0.80481904  0.57858823     0.03400
H498        H  0.49796114  0.84387691  0.63130538     0.11100
H499        H  0.49474444  0.78936648  0.57057410     0.10200
N500        N  0.49894604  0.89004408  0.51790397    -0.33700
N501        N  0.49894604  0.89004425  0.98209236    -0.25800
C502        C  0.49960684  0.90884951  0.97026105    -0.01100
C503        C  0.50006659  0.92116385  0.49999814     0.07500
C504        C  0.49960686  0.90884927  0.52973529     0.05600
H505        H  0.49965021  0.91315115  0.94210613     0.10700
H506        H  0.49965025  0.91315069  0.55789018     0.09600
N507        N  0.33979471  0.83546677  0.92576303    -0.24800
N508        N  0.32430425  0.81829686  0.94436818    -0.32700
C509        C  0.30946865  0.80294869  0.92141467     0.03500
C510        C  0.31594862  0.81084712  0.88677330     0.09500
C511        C  0.33519865  0.83147272  0.89023965    -0.03600
H512        H  0.29496115  0.78730313  0.92944099     0.10200
H513        H  0.34503020  0.84276807  0.86871500     0.11400
Cu514      Cu  0.32343629  0.81653847  0.99999044     0.44200
Cu515      Cu  0.36604106  0.86338515  0.95037163     0.42000
Cu516      Cu  0.36603963  0.86338352  0.54960805     0.43900
N517        N  0.32430280  0.81829533  0.55561276    -0.32200
N518        N  0.33979293  0.83546478  0.57421744    -0.26500
C519        C  0.33519628  0.83147011  0.60974104    -0.02600
C520        C  0.31594609  0.81084449  0.61320789     0.09600
C521        C  0.30946670  0.80294672  0.57856670     0.03400
H522        H  0.34502730  0.84276480  0.63126493     0.11100
H523        H  0.29495940  0.78730148  0.57054085     0.10200
N524        N  0.39026212  0.88894843  0.51789633    -0.33700
N525        N  0.39026269  0.88894903  0.98208386    -0.25800
C526        C  0.40828834  0.90785653  0.97025312    -0.01100
C527        C  0.42006511  0.92023403  0.99999066     0.07500
C528        C  0.40828734  0.90785537  0.52972753     0.05600
H529        H  0.41250870  0.91219424  0.94209865     0.10700
H530        H  0.41250693  0.91219207  0.55788299     0.09600
N531        N  0.50187963  0.16433225  0.92578082    -0.24800
N532        N  0.50292519  0.18122663  0.94438283    -0.32700
C533        C  0.50331644  0.19650683  0.92140798     0.03500
C534        C  0.50248113  0.18885252  0.88675585     0.09500
C535        C  0.50157867  0.16844299  0.89023365    -0.03600
H536        H  0.50405919  0.21197639  0.92942037     0.10200
H537        H  0.50069735  0.15739790  0.86869631     0.11400
Cu538      Cu  0.50343504  0.18284545  0.99999813     0.44200
Cu539      Cu  0.50073980  0.13665968  0.95040122     0.42000
Cu540      Cu  0.50073991  0.13665933  0.54959560     0.43900
N541        N  0.50292534  0.18122625  0.55561355    -0.32200
N542        N  0.50187982  0.16433182  0.57421566    -0.26500
C543        C  0.50157893  0.16844236  0.60976293    -0.02600
C544        C  0.50248141  0.18885190  0.61324048     0.09600
C545        C  0.50331664  0.19650636  0.57858830     0.03400
H546        H  0.50069764  0.15739734  0.63130003     0.11100
H547        H  0.50405935  0.21197595  0.57057579     0.10200
N548        N  0.49968129  0.11121700  0.51790420    -0.33700
N549        N  0.49968127  0.11121716  0.98209262    -0.25800
C550        C  0.49901593  0.09241001  0.97026112    -0.01100
C551        C  0.49855351  0.08009436  0.49999833     0.07500
C552        C  0.49901596  0.09240979  0.52973549     0.05600
H553        H  0.49897814  0.08811122  0.94210622     0.10700
H554        H  0.49897819  0.08811066  0.55789114     0.09600
N555        N  0.65889487  0.16578604  0.57423772    -0.24800
N556        N  0.67437107  0.18296421  0.55562855    -0.32700
C557        C  0.68920889  0.19831507  0.57857730     0.03500
C558        C  0.68274644  0.19041075  0.61322097     0.09500
C559        C  0.66350313  0.16977790  0.60975942    -0.03600
H560        H  0.70370659  0.21396715  0.57054592     0.10200
H561        H  0.65368384  0.15847707  0.63128627     0.11400
Cu562      Cu  0.67522182  0.18472714  0.50000375     0.44200
Cu563      Cu  0.63264879  0.13786259  0.54962952     0.42000
Cu564      Cu  0.63265000  0.13786388  0.95038002     0.43900
N565        N  0.67437225  0.18296536  0.94437894    -0.32200
N566        N  0.65889636  0.16578753  0.92577054    -0.26500
C567        C  0.66350504  0.16977982  0.89024854    -0.02600
C568        C  0.68274839  0.19041273  0.88678612     0.09600
C569        C  0.68921042  0.19831662  0.92142949     0.03400
H570        H  0.65368616  0.15847945  0.86872250     0.11100
H571        H  0.70370779  0.21396839  0.92946008     0.10200
N572        N  0.60841838  0.11230615  0.98209819    -0.33700
N573        N  0.60841787  0.11230562  0.51791135    -0.25800
C574        C  0.59038304  0.09340540  0.52974154    -0.01100
C575        C  0.57859965  0.08103225  0.50000460     0.07500
C576        C  0.59038397  0.09340635  0.97026780     0.05600
H577        H  0.58616039  0.08906947  0.55789723     0.10700
H578        H  0.58616211  0.08907125  0.94211160     0.09600
C579        C  0.47902081  0.98007550  0.99999518     0.04700
C580        C  0.49963143  0.98035417  0.99999784     0.04700
C581        C  0.51979225  0.00091512  0.50000045    -0.15800
C582        C  0.51962982  0.02119956  0.00000058     0.04700
C583        C  0.49901843  0.02091998  0.99999803     0.04700
C584        C  0.47885801  0.00035919  0.99999533    -0.15800
H585        H  0.46299757  0.00014266  0.99999340     0.06800
H586        H  0.53565269  0.00113122  0.50000239     0.06800
O587        O  0.28068975  0.52242914  0.78833513    -0.70500
O588        O  0.23927315  0.52191873  0.71164985    -0.71500
O589        O  0.23927424  0.52191873  0.78833916    -0.60100
O590        O  0.28068866  0.52242915  0.71164697    -0.68500
O591        O  0.26240851  0.48515165  0.71162597    -0.68000
O592        O  0.22097347  0.48464103  0.78835920    -0.59300
O593        O  0.22097240  0.48464102  0.71163189    -0.71800
O594        O  0.26240963  0.48515164  0.78835824    -0.70600
Cu595      Cu  0.26062677  0.52348857  0.74999275     1.04600
Cu596      Cu  0.24104235  0.48357368  0.74999387     1.04300
C597        C  0.27797316  0.50387609  0.80042054     0.95700
C598        C  0.22370393  0.50320700  0.69956976     0.94900
C599        C  0.22370531  0.50320701  0.80042130     0.87000
C600        C  0.27797169  0.50387610  0.69956154     0.93300
O601        O  0.26351249  0.77768390  0.78837845    -0.70500
O602        O  0.22231612  0.73650655  0.71161298    -0.71500
O603        O  0.22231759  0.73650809  0.78838410    -0.60100
O604        O  0.26351105  0.77768236  0.71160922    -0.68500
O605        O  0.28212897  0.75901595  0.71163972    -0.68000
O606        O  0.24096718  0.71787337  0.78835107    -0.59300
O607        O  0.24096573  0.71787184  0.71164521    -0.71800
O608        O  0.28213043  0.75901750  0.78834716    -0.70600
Cu609      Cu  0.24225260  0.75775779  0.74999619     1.04600
Cu610      Cu  0.26220393  0.73778818  0.74999578     1.04300
C611        C  0.27920487  0.77472168  0.80044861     0.95700
C612        C  0.22526704  0.72080808  0.69954366     0.94900
C613        C  0.22526895  0.72081006  0.80045445     0.87000
C614        C  0.27920299  0.77471969  0.69953728     0.93300
N615        N  0.16278073  0.50261639  0.57420630    -0.24800
N616        N  0.17961394  0.50352007  0.55560839    -0.32700
C617        C  0.19486517  0.50385450  0.57858848     0.03500
C618        C  0.18725495  0.50312957  0.61323907     0.09500
C619        C  0.16690302  0.50235257  0.60975623    -0.03600
H620        H  0.21029026  0.50449624  0.57058135     0.10200
H621        H  0.15590809  0.50159014  0.63129321     0.11400
Cu622      Cu  0.18121203  0.50396422  0.99999726     0.44200
Cu623      Cu  0.13517914  0.50163075  0.54958582     0.42000
Cu624      Cu  0.13518013  0.50163092  0.95040983     0.43900
N625        N  0.17961484  0.50352013  0.94438608    -0.32200
N626        N  0.16278200  0.50261650  0.92578871    -0.26500
C627        C  0.16690468  0.50235261  0.89023855    -0.02600
C628        C  0.18725663  0.50312956  0.88675527     0.09600
C629        C  0.19486646  0.50385452  0.92140561     0.03400
H630        H  0.15591032  0.50159020  0.86870247     0.11100
H631        H  0.21029101  0.50449621  0.92941215     0.10200
N632        N  0.10978623  0.50068676  0.98209239    -0.33700
N633        N  0.10978589  0.50068675  0.51790338    -0.25800
C634        C  0.09100787  0.50008701  0.52973527    -0.01100
C635        C  0.07871130  0.49966699  0.99999793     0.07500
C636        C  0.09100847  0.50008704  0.97026055     0.05600
H637        H  0.08671153  0.50005526  0.55789043     0.10700
H638        H  0.08671276  0.50005540  0.94210537     0.09600
N639        N  0.16454536  0.66018676  0.57423243    -0.24800
N640        N  0.18168749  0.67571377  0.55562485    -0.32700
C641        C  0.19702021  0.69056749  0.57857753     0.03500
C642        C  0.18914038  0.68406203  0.61322124     0.09500
C643        C  0.16854243  0.66477693  0.60975708    -0.03600
H644        H  0.21264306  0.70510254  0.57054960     0.10200
H645        H  0.15726811  0.65491675  0.63128428     0.11400
Cu646      Cu  0.18343357  0.67659897  0.00000150     0.44200
Cu647      Cu  0.13665892  0.63389974  0.54962335     0.42000
Cu648      Cu  0.13666043  0.63390129  0.95038099     0.43900
N649        N  0.18168898  0.67571532  0.94437819    -0.32200
N650        N  0.16454722  0.66018867  0.92577113    -0.26500
C651        C  0.16854489  0.66477949  0.89024629    -0.02600
C652        C  0.18914296  0.68406476  0.88678167     0.09600
C653        C  0.19702205  0.69056946  0.92142508     0.03400
H654        H  0.15727128  0.65491996  0.86871996     0.11100
H655        H  0.21264517  0.70510476  0.92945280     0.10200
N656        N  0.11112286  0.60964631  0.98209564    -0.33700
N657        N  0.11112224  0.60964567  0.51790833    -0.25800
C658        C  0.09222530  0.59160711  0.52973877    -0.01100
C659        C  0.07985490  0.57982120  0.00000139     0.07500
C660        C  0.09222638  0.59160820  0.97026449     0.05600
H661        H  0.08788368  0.58739119  0.55789368     0.10700
H662        H  0.08788584  0.58739337  0.94210947     0.09600
N663        N  0.83412343  0.34114991  0.57422777    -0.24800
N664        N  0.81696740  0.32564348  0.55561933    -0.32700
C665        C  0.80163192  0.31078824  0.57856954     0.03500
C666        C  0.80952352  0.31727032  0.61321369     0.09500
C667        C  0.83013242  0.33654399  0.60975088    -0.03600
H668        H  0.78600026  0.29626578  0.57053913     0.10200
H669        H  0.84141857  0.34638431  0.63127732     0.11400
Cu670      Cu  0.81521271  0.32477770  0.99999395     0.44200
Cu671      Cu  0.86202174  0.36742910  0.54961700     0.42000
Cu672      Cu  0.86202259  0.36743005  0.95036846     0.43900
N673        N  0.81696813  0.32564442  0.94436854    -0.32200
N674        N  0.83412449  0.34115120  0.92575915    -0.26500
C675        C  0.83013385  0.33654570  0.89023637    -0.02600
C676        C  0.80952498  0.31727206  0.88677456     0.09600
C677        C  0.80163305  0.31078961  0.92141909     0.03400
H678        H  0.84142052  0.34638648  0.86870887     0.11100
H679        H  0.78600077  0.29626649  0.92945057     0.10200
N680        N  0.88756756  0.39167885  0.98208569    -0.33700
N681        N  0.88756722  0.39167844  0.51789895    -0.25800
C682        C  0.90646839  0.40971244  0.52972906    -0.01100
C683        C  0.91884322  0.42149691  0.99999193     0.07500
C684        C  0.90646895  0.40971311  0.97025525     0.05600
H685        H  0.91081006  0.41392663  0.55788424     0.10700
H686        H  0.91081125  0.41392801  0.94209951     0.09600
N687        N  0.83582233  0.49845148  0.57419297    -0.24800
N688        N  0.81893293  0.49742701  0.55560009    -0.32700
C689        C  0.80365539  0.49703598  0.57858328     0.03500
C690        C  0.81130781  0.49784962  0.61322956     0.09500
C691        C  0.83171150  0.49873853  0.60974200    -0.03600
H692        H  0.78818823  0.49630497  0.57058065     0.10200
H693        H  0.84275153  0.49959858  0.63127366     0.11400
Cu694      Cu  0.81731088  0.49693251  0.99999077     0.44200
Cu695      Cu  0.86348658  0.49957351  0.54957280     0.42000
Cu696      Cu  0.86348767  0.49957322  0.95040760     0.43900
N697        N  0.81893407  0.49742691  0.94438141    -0.32200
N698        N  0.83582366  0.49845127  0.92578809    -0.26500
C699        C  0.83171320  0.49873821  0.89023913    -0.02600
C700        C  0.81130960  0.49784936  0.88675210     0.09600
C701        C  0.80365677  0.49703587  0.92139864     0.03400
H702        H  0.84275353  0.49959817  0.86870700     0.11100
H703        H  0.78818990  0.49630497  0.92940154     0.10200
N704        N  0.88891777  0.50059637  0.98208514    -0.33700
N705        N  0.88891732  0.50059651  0.51789572    -0.25800
C706        C  0.90770848  0.50122546  0.52972828    -0.01100
C707        C  0.92001417  0.50166431  0.99999104     0.07500
C708        C  0.90770932  0.50122520  0.97025315     0.05600
H709        H  0.91200074  0.50124987  0.55788373     0.10700
H710        H  0.91200228  0.50124943  0.94209855     0.09600
C711        C  0.01995202  0.52092506  0.99999748     0.04700
C712        C  0.01960813  0.50028464  0.99999670     0.04700
C713        C  0.99901342  0.48015865  0.99999489    -0.15800
C714        C  0.97875930  0.48038529  0.99999367     0.04700
C715        C  0.97910487  0.50102674  0.99999411     0.04700
C716        C  0.99969885  0.52115180  0.99999610    -0.15800
H717        H  0.99996509  0.53703518  0.99999656     0.06800
H718        H  0.99874740  0.46427573  0.99999443     0.06800
O719        O  0.52124435  0.24086903  0.78834458    -0.70500
O720        O  0.52173649  0.28227330  0.71164801    -0.71500
O721        O  0.52173641  0.28227370  0.78834224    -0.60100
O722        O  0.52124447  0.24086863  0.71164856    -0.68500
O723        O  0.48396334  0.22255741  0.71163124    -0.68000
O724        O  0.48445549  0.26398322  0.78836629    -0.59300
O725        O  0.48445558  0.26398284  0.71162687    -0.71800
O726        O  0.48396322  0.22255780  0.78836469    -0.70600
Cu727      Cu  0.52280500  0.26221675  0.74999580     1.04600
Cu728      Cu  0.48288679  0.24262132  0.74999731     1.04300
C729        C  0.50253366  0.22529662  0.80042822     0.95700
C730        C  0.50317906  0.27954966  0.69956127     0.94900
C731        C  0.50317896  0.27955015  0.80043006     0.87000
C732        C  0.50253380  0.22529609  0.69956676     0.93300
O733        O  0.71786914  0.47849361  0.78833979    -0.70500
O734        O  0.75929820  0.47903788  0.71165046    -0.71500
O735        O  0.75929913  0.47903782  0.78833678    -0.60100
O736        O  0.71786827  0.47849371  0.71165379    -0.68500
O737        O  0.73612508  0.51577110  0.71163012    -0.68000
O738        O  0.77757703  0.51631548  0.78835518    -0.59300
O739        O  0.77757612  0.51631554  0.71163019    -0.71800
O740        O  0.73612591  0.51577100  0.78836147    -0.70600
Cu741      Cu  0.73793917  0.47745113  0.74999526     1.07600
Cu742      Cu  0.75749894  0.51736610  0.74999422     1.04300
C743        C  0.72057249  0.49704117  0.80042596     0.95700
C744        C  0.77485754  0.49775474  0.69956814     0.94900
C745        C  0.77485876  0.49775465  0.80041716     0.87000
C746        C  0.72057141  0.49704130  0.69956751     0.93300
O747        O  0.47715086  0.71907851  0.71165479    -0.70500
O748        O  0.47755704  0.76044263  0.78834868    -0.71500
O749        O  0.47755702  0.76044188  0.71165101    -0.60100
O750        O  0.47715090  0.71907931  0.78834887    -0.68500
O751        O  0.51443243  0.73742834  0.78836964    -0.68000
O752        O  0.51483868  0.77881121  0.71163136    -0.59300
O753        O  0.51483870  0.77881195  0.78836534    -0.71800
O754        O  0.51443240  0.73742755  0.71163096    -0.70600
Cu755      Cu  0.47603930  0.73911292  0.75000088     1.04600
Cu756      Cu  0.51595808  0.75877085  0.74999926     1.04300
C757        C  0.49572196  0.72183733  0.69956792     0.95700
C758        C  0.49625488  0.77603803  0.80043013     0.94900
C759        C  0.49625487  0.77603708  0.69956752     0.87000
C760        C  0.49572201  0.72183838  0.80043484     0.93300
N761        N  0.33867581  0.50403962  0.92577982    -0.24800
N762        N  0.32290639  0.50523772  0.94437288    -0.32700
C763        C  0.30802764  0.50564610  0.92139203     0.03500
C764        C  0.31477345  0.50466283  0.88674877     0.09500
C765        C  0.33422226  0.50365165  0.89023651    -0.03600
H766        H  0.29332498  0.50643821  0.92939685     0.10200
H767        H  0.34428975  0.50258509  0.86871213     0.11400
Cu768      Cu  0.32181753  0.50578900  0.99998901     0.44200
Cu769      Cu  0.36511948  0.50274179  0.95039704     0.42000
Cu770      Cu  0.36511798  0.50274161  0.54958040     0.43900
N771        N  0.32290495  0.50523761  0.55560521    -0.32200
N772        N  0.33867407  0.50403945  0.57419806    -0.26500
C773        C  0.33422004  0.50365149  0.60974143    -0.02600
C774        C  0.31477121  0.50466273  0.61322950     0.09600
C775        C  0.30802592  0.50564602  0.57858634     0.03400
H776        H  0.34428726  0.50258494  0.63126572     0.11100
H777        H  0.29332320  0.50643824  0.57058167     0.10200
N778        N  0.38951744  0.50172057  0.51789449    -0.33700
N779        N  0.38951804  0.50172058  0.98208384    -0.25800
C780        C  0.40767603  0.50108529  0.97025149    -0.01100
C781        C  0.41953826  0.50064575  0.99998988     0.07500
C782        C  0.40767500  0.50108525  0.52972783     0.05600
H783        H  0.41192959  0.50103065  0.94209586     0.10700
H784        H  0.41192746  0.50103050  0.55788334     0.09600
N785        N  0.49570602  0.66119453  0.57422398    -0.24800
N786        N  0.49447175  0.67693989  0.55562365    -0.32700
C787        C  0.49402559  0.69180052  0.57859878     0.03500
C788        C  0.49502226  0.68506927  0.61324693     0.09500
C789        C  0.49608017  0.66564632  0.60976647    -0.03600
H790        H  0.49320003  0.70648286  0.57058666     0.10200
H791        H  0.49717017  0.65559607  0.63129565     0.11400
Cu792      Cu  0.49392467  0.67802143  0.00000233     0.44200
Cu793      Cu  0.49707123  0.63478793  0.54960602     0.42000
Cu794      Cu  0.49707128  0.63478889  0.95039801     0.43900
N795        N  0.49447181  0.67694081  0.94438091    -0.32200
N796        N  0.49570609  0.66119562  0.92578022    -0.26500
C797        C  0.49608025  0.66564779  0.89023784    -0.02600
C798        C  0.49502237  0.68507078  0.88675763     0.09600
C799        C  0.49402570  0.69180167  0.92140600     0.03400
H800        H  0.49717024  0.65559761  0.86870816     0.11100
H801        H  0.49320014  0.70648410  0.92941846     0.10200
N802        N  0.49814365  0.61042175  0.98209576    -0.33700
N803        N  0.49814366  0.61042136  0.51790719    -0.25800
C804        C  0.49881084  0.59228173  0.52973893    -0.01100
C805        C  0.49927109  0.58043130  0.00000060     0.07500
C806        C  0.49881082  0.59228239  0.97026299     0.05600
H807        H  0.49887049  0.58803122  0.55789380     0.10700
H808        H  0.49887046  0.58803248  0.94210767     0.09600
N809        N  0.50325061  0.34021760  0.57421419    -0.24800
N810        N  0.50453882  0.32450175  0.55561592    -0.32700
C811        C  0.50499875  0.30964831  0.57859160     0.03500
C812        C  0.50395518  0.31635390  0.61323778     0.09500
C813        C  0.50285433  0.33575348  0.60975557    -0.03600
H814        H  0.50585783  0.29498409  0.57058060     0.10200
H815        H  0.50171415  0.34577591  0.63128193     0.11400
Cu816      Cu  0.50511511  0.32343598  0.99999502     0.44200
Cu817      Cu  0.50183136  0.36659523  0.54959661     0.42000
Cu818      Cu  0.50183115  0.36659537  0.95039318     0.43900
N819        N  0.50453865  0.32450193  0.94437413    -0.32200
N820        N  0.50325035  0.34021782  0.92577591    -0.26500
C821        C  0.50285407  0.33575392  0.89023448    -0.02600
C822        C  0.50395500  0.31635433  0.88675244     0.09600
C823        C  0.50499861  0.30964867  0.92139849     0.03400
H824        H  0.50171390  0.34577618  0.86870870     0.11100
H825        H  0.50585779  0.29498419  0.92940966     0.10200
N826        N  0.50070808  0.39093586  0.98208920    -0.33700
N827        N  0.50070818  0.39093583  0.51790048    -0.25800
C828        C  0.50000959  0.40905871  0.52973272    -0.01100
C829        C  0.49952827  0.42089845  0.99999468     0.07500
C830        C  0.50000947  0.40905877  0.97025690     0.05600
H831        H  0.49994682  0.41330736  0.55788815     0.10700
H832        H  0.49994661  0.41330753  0.94210115     0.09600
N833        N  0.65989398  0.49690787  0.92579550    -0.24800
N834        N  0.67560976  0.49561105  0.94438349    -0.32700
C835        C  0.69046508  0.49515952  0.92139961     0.03500
C836        C  0.68375922  0.49621723  0.88676061     0.09500
C837        C  0.66435943  0.49731819  0.89025340    -0.03600
H838        H  0.70513110  0.49429812  0.92940054     0.10200
H839        H  0.65433815  0.49846890  0.86873438     0.11400
Cu840      Cu  0.67667759  0.49501955  0.99999842     0.44200
Cu841      Cu  0.63351353  0.49832176  0.95041293     0.42000
Cu842      Cu  0.63351293  0.49832192  0.54958524     0.43900
N843        N  0.67560906  0.49561111  0.55561339    -0.32200
N844        N  0.65989312  0.49690806  0.57420192    -0.26500
C845        C  0.66435828  0.49731848  0.60974369    -0.02600
C846        C  0.68375790  0.49621742  0.61323605     0.09600
C847        C  0.69046412  0.49515956  0.57859681     0.03400
H848        H  0.65433648  0.49846935  0.63126374     0.11100
H849        H  0.70513004  0.49429805  0.57059553     0.10200
N850        N  0.60916473  0.49943946  0.51790443    -0.33700
N851        N  0.60916491  0.49943936  0.98209414    -0.25800
C852        C  0.59103734  0.50013140  0.97026126    -0.01100
C853        C  0.57919456  0.50060884  0.99999953     0.07500
C854        C  0.59103696  0.50013154  0.52973777     0.05600
H855        H  0.58678645  0.50019014  0.94210539     0.10700
H856        H  0.58678580  0.50019035  0.55789307     0.09600
C857        C  0.47892701  0.50061752  0.99999433     0.04700
C858        C  0.49938793  0.52109227  0.99999744     0.04700
C859        C  0.51970040  0.52098832  0.99999918    -0.15800
C860        C  0.51983530  0.50069354  0.99999807     0.04700
C861        C  0.49937458  0.48021887  0.99999541     0.04700
C862        C  0.47906214  0.48032269  0.99999344    -0.15800
H863        H  0.46331672  0.46456660  0.99999127     0.06800
H864        H  0.53544614  0.53674437  0.00000135     0.06800
C865        C  0.55855458  0.50109101  0.99999974    -0.10800
C866        C  0.54107119  0.50117335  0.99999931    -0.12400
C867        C  0.49902937  0.44152832  0.99999471    -0.10800
C868        C  0.49892649  0.45899992  0.99999484    -0.12400
C869        C  0.49983782  0.54231195  0.99999889    -0.10800
C870        C  0.49974667  0.55978943  0.99999988    -0.12400
C871        C  0.45768989  0.50013553  0.99999214    -0.10800
C872        C  0.44019779  0.50020087  0.99999073    -0.12400
C873        C  0.49532474  0.69652628  0.85418496    -0.10800
C874        C  0.49555014  0.70753516  0.82871641    -0.12400
C875        C  0.49555010  0.70753359  0.67128761    -0.10800
C876        C  0.49532467  0.69652452  0.64581961    -0.12400
C877        C  0.70624796  0.49682155  0.67128508    -0.10800
C878        C  0.69522652  0.49655896  0.64581098    -0.12400
C879        C  0.70624946  0.49682135  0.82871018    -0.10800
C880        C  0.69522806  0.49655874  0.85418515    -0.12400
C881        C  0.50362910  0.30488655  0.85418148    -0.10800
C882        C  0.50338068  0.29386708  0.82871256    -0.12400
C883        C  0.50338082  0.29386643  0.67127805    -0.10800
C884        C  0.50362928  0.30488590  0.64580882    -0.12400
C885        C  0.80006059  0.49793138  0.85416292    -0.10800
C886        C  0.78915712  0.49791255  0.82869084    -0.12400
C887        C  0.80005857  0.49793160  0.64581922    -0.10800
C888        C  0.78915531  0.49791270  0.67129242    -0.12400
C889        C  0.94105843  0.50197554  0.99999158    -0.10800
C890        C  0.95851957  0.50184291  0.99999263    -0.12400
C891        C  0.94010546  0.44198922  0.99999187    -0.10800
C892        C  0.95781071  0.45932919  0.99999239    -0.12400
C893        C  0.04089797  0.54198156  0.99999947    -0.10800
C894        C  0.05859888  0.55932462  0.00000071    -0.12400
C895        C  0.05766365  0.49935074  0.99999781    -0.10800
C896        C  0.04019679  0.49947313  0.99999748    -0.12400
C897        C  0.20028063  0.69557629  0.64577185    -0.10800
C898        C  0.21107806  0.70657644  0.67124106    -0.12400
C899        C  0.21108082  0.70657930  0.82875989    -0.10800
C900        C  0.20028363  0.69557939  0.85423049    -0.12400
C901        C  0.29229073  0.50408338  0.67127920    -0.10800
C902        C  0.30330842  0.50433429  0.64580614    -0.12400
C903        C  0.30331093  0.50433435  0.85417254    -0.10800
C904        C  0.29229294  0.50408339  0.82870064    -0.12400
C905        C  0.20941068  0.50306019  0.82869541    -0.10800
C906        C  0.19850727  0.50304662  0.85416581    -0.12400
C907        C  0.19850523  0.50304661  0.64582815    -0.10800
C908        C  0.20940874  0.50306018  0.67129762    -0.12400
C909        C  0.54072027  0.04211132  0.00000290    -0.10800
C910        C  0.55808578  0.05979129  0.50000410    -0.12400
C911        C  0.50238615  0.20010224  0.64582435    -0.10800
C912        C  0.50239310  0.21100452  0.67129163    -0.12400
C913        C  0.50238591  0.20010306  0.85417190    -0.10800
C914        C  0.50239289  0.21100530  0.82870424    -0.12400
C915        C  0.49818787  0.05902495  0.49999822    -0.10800
C916        C  0.49826902  0.04153917  0.99999815    -0.12400
C917        C  0.30443827  0.79970215  0.85422329    -0.10800
C918        C  0.29344032  0.78890456  0.82875276    -0.12400
C919        C  0.30443533  0.79969909  0.64575846    -0.10800
C920        C  0.29343762  0.78890174  0.67123037    -0.12400
C921        C  0.45793122  0.95916431  0.99999266    -0.10800
C922        C  0.44056998  0.94148130  0.99999120    -0.12400
C923        C  0.49636709  0.79031516  0.67129200    -0.10800
C924        C  0.49635797  0.80121050  0.64582556    -0.12400
C925        C  0.49635785  0.80121170  0.85417088    -0.10800
C926        C  0.49636708  0.79031641  0.82870471    -0.12400
C927        C  0.50044602  0.94224037  0.49999812    -0.10800
C928        C  0.50037703  0.95973250  0.49999804    -0.12400
C929        C  0.79838571  0.30574263  0.64576178    -0.10800
C930        C  0.78759134  0.29473372  0.67122986    -0.12400
C931        C  0.79838758  0.30574467  0.85422711    -0.10800
C932        C  0.78759318  0.29473566  0.82876018    -0.12400
C933        C  0.70526437  0.21236572  0.82876923    -0.10800
C934        C  0.69426554  0.20156259  0.85423851    -0.12400
C935        C  0.70526239  0.21236361  0.67123578    -0.10800
C936        C  0.69426333  0.20156026  0.64576786    -0.12400
loop_ 
_geom_bond_atom_site_label_1 
_geom_bond_atom_site_label_2 
_geom_bond_distance 
_geom_bond_site_symmetry_2 
_ccdc_geom_bond_type 
O1           Cu9   2.007       .  S
O1           C11   1.276       .  A
O2           Cu9   2.007       .  S
O2           C12   1.276       .  A
O3           Cu9   2.007       .  S
O3           C13   1.276       .  A
O4           Cu9   2.007       .  S
O4           C14   1.276       .  A
O5          Cu10   2.008       .  S
O5           C14   1.276       .  A
O6          Cu10   2.008       .  S
O6           C13   1.276       .  A
O7          Cu10   2.008       .  S
O7           C12   1.276       .  A
O8          Cu10   2.008       .  S
O8           C11   1.276       .  A
Cu9         Cu10   2.381       .  S
C11         C467   1.433       .  S
C12         C464   1.433       .  S
C13         C462   1.433       .  S
C14         C465   1.433       .  S
N15          N16   1.322       .  A
N15          C19   1.347       .  A
N15         Cu23   2.078       .  S
N16          C17   1.342       .  A
N16        Cu490   2.059       .  S
C17          C18   1.376       .  A
C17          H20   1.082       .  S
C18         C457   1.435       .  S
C18          C19   1.381       .  A
C19          H21   1.082       .  S
Cu22         N25   2.059   1_556  S
Cu22        N484   2.059       .  S
Cu23         N33   2.079       .  S
Cu24         N26   2.078       .  S
Cu24         N32   2.079       .  S
N25          N26   1.322       .  A
N25          C29   1.342       .  A
N26          C27   1.347       .  A
C27          C28   1.381       .  A
C27          H30   1.082       .  S
C28         C456   1.435       .  S
C28          C29   1.376       .  A
C29          H31   1.082       .  S
N32         N501   1.325   1_554  A
N32          C36   1.346       .  A
N33         N500   1.325       .  A
N33          C34   1.346       .  A
C34         C503   1.380       .  A
C34          H37   1.082       .  S
C35         C459   1.439       .  S
C35          C36   1.380   1_556  A
C35         C502   1.380       .  A
C36          H38   1.082       .  S
N39          N40   1.322       .  A
N39          C43   1.347       .  A
N39         Cu47   2.078       .  S
N40          C41   1.342       .  A
N40         Cu46   2.060       .  S
C41          C42   1.376       .  A
C41          H44   1.082       .  S
C42         C449   1.435       .  S
C42          C43   1.382       .  A
C43          H45   1.082       .  S
Cu46        N517   2.060       .  S
Cu47         N57   2.079       .  S
Cu48         N50   2.078       .  S
Cu48         N56   2.079       .  S
N49          N50   1.322       .  A
N49          C53   1.342       .  A
N49        Cu514   2.060   1_554  S
N50          C51   1.347       .  A
C51          C52   1.382       .  A
C51          H54   1.082       .  S
C52         C451   1.435       .  S
C52          C53   1.376       .  A
C53          H55   1.082       .  S
N56         N525   1.325   1_554  A
N56          C60   1.346       .  A
N57         N524   1.325       .  A
N57          C58   1.346       .  A
C58          C59   1.379       .  A
C58          H61   1.082       .  S
C59         C454   1.438       .  S
C59         C528   1.379       .  A
C60         C527   1.379   1_554  A
C60          H62   1.082       .  S
N63          N64   1.322       .  A
N63          C67   1.347       .  A
N63         Cu71   2.078       .  S
N64          C65   1.342       .  A
N64         Cu70   2.059       .  S
C65          C66   1.376       .  A
C65          H68   1.082       .  S
C66         C445   1.435       .  S
C66          C67   1.381       .  A
C67          H69   1.082       .  S
Cu70        N541   2.059       .  S
Cu71         N81   2.079       .  S
Cu72         N74   2.078       .  S
Cu72         N80   2.079       .  S
N73          N74   1.322       .  A
N73          C77   1.342       .  A
N73        Cu538   2.059   1_554  S
N74          C75   1.347       .  A
C75          C76   1.381       .  A
C75          H78   1.082       .  S
C76         C443   1.435       .  S
C76          C77   1.376       .  A
C77          H79   1.082       .  S
N80         N549   1.325   1_554  A
N80          C84   1.346       .  A
N81         N548   1.325       .  A
N81          C82   1.346       .  A
C82         C551   1.380       .  A
C82          H85   1.082       .  S
C83         C447   1.439       .  S
C83          C84   1.380   1_556  A
C83         C550   1.380       .  A
C84          H86   1.082       .  S
N87          N88   1.322       .  A
N87          C91   1.347       .  A
N87         Cu95   2.078       .  S
N88          C89   1.342       .  A
N88         Cu94   2.060       .  S
C89          C90   1.376       .  A
C89          H92   1.082       .  S
C90         C468   1.435       .  S
C90          C91   1.382       .  A
C91          H93   1.082       .  S
Cu94        N565   2.060   1_554  S
Cu95        N105   2.079       .  S
Cu96         N98   2.078       .  S
Cu96        N104   2.079       .  S
N97          N98   1.322       .  A
N97         C101   1.342       .  A
N97        Cu562   2.060       .  S
N98          C99   1.347       .  A
C99         C100   1.382       .  A
C99         H102   1.082       .  S
C100        C466   1.435       .  S
C100        C101   1.376       .  A
C101        H103   1.082       .  S
N104        N573   1.325       .  A
N104        C108   1.346       .  A
N105        N572   1.325   1_554  A
N105        C106   1.346       .  A
C106        C107   1.379       .  A
C106        H109   1.082       .  S
C107        C442   1.438       .  S
C107        C576   1.379   1_554  A
C108        C575   1.379       .  A
C108        H110   1.082       .  S
C111        C453   1.446       .  S
C111        C112   1.410       .  A
C111        C116   1.402   1_565  A
C112        C928   1.446       .  S
C112        C581   1.402   1_565  A
C113        C580   1.402   1_544  A
C113        C582   1.402       .  A
C113        H118   1.085       .  S
C114        C441   1.446       .  S
C114        C115   1.410       .  A
C114        C581   1.402       .  A
C115        C448   1.446       .  S
C115        C116   1.402       .  A
C116        H117   1.085       .  S
O119       Cu127   2.006       .  S
O119        C129   1.276       .  A
O120       Cu127   2.007       .  S
O120        C130   1.276       .  A
O121       Cu127   2.007       .  S
O121        C131   1.276       .  A
O122       Cu127   2.006       .  S
O122        C132   1.276       .  A
O123       Cu128   2.008       .  S
O123        C132   1.276       .  A
O124       Cu128   2.008       .  S
O124        C131   1.276       .  A
O125       Cu128   2.008       .  S
O125        C130   1.276       .  A
O126       Cu128   2.008       .  S
O126        C129   1.276       .  A
Cu127      Cu128   2.381       .  S
C129        C436   1.433       .  S
C130        C440   1.433       .  S
C131        C437   1.433       .  S
C132        C433   1.433       .  S
O133       Cu141   2.008       .  S
O133        C143   1.276       .  A
O134       Cu141   2.008       .  S
O134        C144   1.276       .  A
O135       Cu141   2.008       .  S
O135        C145   1.276       .  A
O136       Cu141   2.008       .  S
O136        C146   1.276       .  A
O137       Cu142   2.007       .  S
O137        C146   1.276       .  A
O138       Cu142   2.007       .  S
O138        C145   1.276       .  A
O139       Cu142   2.007       .  S
O139        C144   1.276       .  A
O140       Cu142   2.007       .  S
O140        C143   1.276       .  A
Cu141      Cu142   2.381       .  S
C143        C450   1.433       .  S
C144        C430   1.433       .  S
C145        C431   1.433       .  S
C146        C452   1.433       .  S
N147        N148   1.322       .  A
N147        C151   1.347       .  A
N147       Cu155   2.078       .  S
N148        C149   1.342       .  A
N148       Cu622   2.059   1_554  S
C149        C150   1.376       .  A
C149        H152   1.082       .  S
C150        C439   1.434       .  S
C150        C151   1.381       .  A
C151        H153   1.082       .  S
Cu154       N157   2.059       .  S
Cu154       N616   2.059       .  S
Cu155       N165   2.079       .  S
Cu156       N158   2.078       .  S
Cu156       N164   2.079       .  S
N157        N158   1.322       .  A
N157        C161   1.342       .  A
N158        C159   1.347       .  A
C159        C160   1.381       .  A
C159        H162   1.082       .  S
C160        C438   1.434       .  S
C160        C161   1.376       .  A
C161        H163   1.082       .  S
N164        N633   1.325       .  A
N164        C168   1.346       .  A
N165        N632   1.325   1_554  A
N165        C166   1.346       .  A
C166        C635   1.380   1_554  A
C166        H169   1.082       .  S
C167        C427   1.439       .  S
C167        C168   1.380       .  A
C167        C634   1.380       .  A
C168        H170   1.082       .  S
N171        N172   1.322       .  A
N171        C175   1.347       .  A
N171       Cu179   2.078       .  S
N172        C173   1.342       .  A
N172       Cu646   2.060       .  S
C173        C174   1.376       .  A
C173        H176   1.082       .  S
C174        C429   1.435       .  S
C174        C175   1.382       .  A
C175        H177   1.082       .  S
Cu178       N181   2.060       .  S
Cu178       N640   2.060       .  S
Cu179       N189   2.079       .  S
Cu180       N182   2.078       .  S
Cu180       N188   2.079       .  S
N181        N182   1.322       .  A
N181        C185   1.342       .  A
N182        C183   1.347       .  A
C183        C184   1.382       .  A
C183        H186   1.082       .  S
C184        C432   1.435       .  S
C184        C185   1.376       .  A
C185        H187   1.082       .  S
N188        N657   1.325       .  A
N188        C192   1.346       .  A
N189        N656   1.325   1_554  A
N189        C190   1.346       .  A
C190        C659   1.379       .  A
C190        H193   1.082       .  S
C191        C426   1.438       .  S
C191        C192   1.379       .  A
C191        C658   1.379       .  A
C192        H194   1.082       .  S
N195        N196   1.322       .  A
N195        C199   1.347       .  A
N195       Cu203   2.078       .  S
N196        C197   1.342       .  A
N196       Cu670   2.060   1_554  S
C197        C198   1.376       .  A
C197        H200   1.082       .  S
C198        C461   1.435       .  S
C198        C199   1.382       .  A
C199        H201   1.082       .  S
Cu202       N205   2.060       .  S
Cu202       N664   2.060       .  S
Cu203       N213   2.079       .  S
Cu204       N206   2.078       .  S
Cu204       N212   2.079       .  S
N205        N206   1.322       .  A
N205        C209   1.342       .  A
N206        C207   1.347       .  A
C207        C208   1.382       .  A
C207        H210   1.082       .  S
C208        C463   1.435       .  S
C208        C209   1.376       .  A
C209        H211   1.082       .  S
N212        N681   1.325       .  A
N212        C216   1.346       .  A
N213        N680   1.325   1_554  A
N213        C214   1.346       .  A
C214        C683   1.379   1_554  A
C214        H217   1.082       .  S
C215        C423   1.439       .  S
C215        C216   1.379       .  A
C215        C682   1.379       .  A
C216        H218   1.082       .  S
N219        N220   1.322       .  A
N219        C223   1.347       .  A
N219       Cu227   2.078       .  S
N220        C221   1.342       .  A
N220       Cu694   2.059   1_554  S
C221        C222   1.376       .  A
C221        H224   1.082       .  S
C222        C419   1.434       .  S
C222        C223   1.381       .  A
C223        H225   1.082       .  S
Cu226       N229   2.059       .  S
Cu226       N688   2.059       .  S
Cu227       N237   2.079       .  S
Cu228       N230   2.078       .  S
Cu228       N236   2.079       .  S
N229        N230   1.322       .  A
N229        C233   1.342       .  A
N230        C231   1.347       .  A
C231        C232   1.381       .  A
C231        H234   1.082       .  S
C232        C417   1.434       .  S
C232        C233   1.376       .  A
C233        H235   1.082       .  S
N236        N705   1.325       .  A
N236        C240   1.346       .  A
N237        N704   1.325   1_554  A
N237        C238   1.346       .  A
C238        C707   1.379   1_554  A
C238        H241   1.082       .  S
C239        C421   1.438       .  S
C239        C240   1.380       .  A
C239        C706   1.380       .  A
C240        H242   1.082       .  S
C243        C425   1.446       .  S
C243        C244   1.410       .  A
C243        C248   1.402   1_455  A
C244        C428   1.446       .  S
C244        C245   1.402   1_455  A
C245        C246   1.403       .  A
C245        H250   1.085       .  S
C246        C424   1.446       .  S
C246        C247   1.410       .  A
C247        C422   1.446       .  S
C247        C248   1.402       .  A
C248        H249   1.085       .  S
O251       Cu259   2.007       .  S
O251        C261   1.276       .  A
O252       Cu259   2.007       .  S
O252        C262   1.276       .  A
O253       Cu259   2.007       .  S
O253        C263   1.276       .  A
O254       Cu259   2.007       .  S
O254        C264   1.276       .  A
O255       Cu260   2.008       .  S
O255        C264   1.276       .  A
O256       Cu260   2.008       .  S
O256        C263   1.276       .  A
O257       Cu260   2.008       .  S
O257        C262   1.276       .  A
O258       Cu260   2.008       .  S
O258        C261   1.276       .  A
Cu259      Cu260   2.381       .  S
C261        C446   1.433       .  S
C262        C415   1.433       .  S
C263        C414   1.433       .  S
C264        C444   1.433       .  S
O265       Cu273   2.006       .  S
O265        C275   1.276       .  A
O266       Cu273   2.006       .  S
O266        C276   1.276       .  A
O267       Cu273   2.006       .  S
O267        C277   1.276       .  A
O268       Cu273   2.006       .  S
O268        C278   1.276       .  A
O269       Cu274   2.008       .  S
O269        C278   1.276       .  A
O270       Cu274   2.007       .  S
O270        C277   1.276       .  A
O271       Cu274   2.007       .  S
O271        C276   1.276       .  A
O272       Cu274   2.008       .  S
O272        C275   1.276       .  A
Cu273      Cu274   2.381       .  S
C275        C411   1.433       .  S
C276        C420   1.433       .  S
C277        C418   1.433       .  S
C278        C409   1.433       .  S
O279       Cu287   2.007       .  S
O279        C289   1.276       .  A
O280       Cu287   2.007       .  S
O280        C290   1.276       .  A
O281       Cu287   2.007       .  S
O281        C291   1.276       .  A
O282       Cu287   2.007       .  S
O282        C292   1.276       .  A
O283       Cu288   2.008       .  S
O283        C292   1.276       .  A
O284       Cu288   2.008       .  S
O284        C291   1.276       .  A
O285       Cu288   2.008       .  S
O285        C290   1.276       .  A
O286       Cu288   2.008       .  S
O286        C289   1.276       .  A
Cu287      Cu288   2.381       .  S
C289        C407   1.433       .  S
C290        C458   1.433       .  S
C291        C455   1.433       .  S
C292        C406   1.433       .  S
N293        N294   1.322       .  A
N293        C297   1.347       .  A
N293       Cu301   2.077       .  S
N294        C295   1.342       .  A
N294       Cu300   2.059       .  S
C295        C296   1.376       .  A
C295        H298   1.082       .  S
C296        C435   1.434       .  S
C296        C297   1.381       .  A
C297        H299   1.082       .  S
Cu300       N771   2.059       .  S
Cu301       N311   2.078       .  S
Cu302       N304   2.077       .  S
Cu302       N310   2.078       .  S
N303        N304   1.322       .  A
N303        C307   1.342       .  A
N303       Cu768   2.059   1_554  S
N304        C305   1.347       .  A
C305        C306   1.381       .  A
C305        H308   1.082       .  S
C306        C434   1.434       .  S
C306        C307   1.376       .  A
C307        H309   1.082       .  S
N310        N779   1.325   1_554  A
N310        C314   1.346       .  A
N311        N778   1.325       .  A
N311        C312   1.346       .  A
C312        C313   1.379       .  A
C312        H315   1.082       .  S
C313        C404   1.438       .  S
C313        C782   1.379       .  A
C314        C781   1.379   1_554  A
C314        H316   1.082       .  S
N317        N318   1.322       .  A
N317        C321   1.347       .  A
N317       Cu325   2.077       .  S
N318        C319   1.342       .  A
N318       Cu792   2.060       .  S
C319        C320   1.376       .  A
C319        H322   1.082       .  S
C320        C408   1.434       .  S
C320        C321   1.381       .  A
C321        H323   1.082       .  S
Cu324       N327   2.060       .  S
Cu324       N786   2.060       .  S
Cu325       N335   2.078       .  S
Cu326       N328   2.077       .  S
Cu326       N334   2.078       .  S
N327        N328   1.322       .  A
N327        C331   1.342       .  A
N328        C329   1.347       .  A
C329        C330   1.381       .  A
C329        H332   1.082       .  S
C330        C405   1.434       .  S
C330        C331   1.376       .  A
C331        H333   1.082       .  S
N334        N803   1.325       .  A
N334        C338   1.346       .  A
N335        N802   1.325   1_554  A
N335        C336   1.346       .  A
C336        C805   1.379       .  A
C336        H339   1.082       .  S
C337        C402   1.438       .  S
C337        C338   1.379       .  A
C337        C804   1.379       .  A
C338        H340   1.082       .  S
N341        N342   1.322       .  A
N341        C345   1.347       .  A
N341       Cu349   2.077       .  S
N342        C343   1.342       .  A
N342       Cu816   2.060   1_554  S
C343        C344   1.376       .  A
C343        H346   1.082       .  S
C344        C416   1.434       .  S
C344        C345   1.381       .  A
C345        H347   1.082       .  S
Cu348       N351   2.060       .  S
Cu348       N810   2.060       .  S
Cu349       N359   2.078       .  S
Cu350       N352   2.077       .  S
Cu350       N358   2.078       .  S
N351        N352   1.322       .  A
N351        C355   1.342       .  A
N352        C353   1.347       .  A
C353        C354   1.381       .  A
C353        H356   1.082       .  S
C354        C413   1.434       .  S
C354        C355   1.376       .  A
C355        H357   1.082       .  S
N358        N827   1.325       .  A
N358        C362   1.346       .  A
N359        N826   1.325   1_554  A
N359        C360   1.346       .  A
C360        C829   1.379   1_554  A
C360        H363   1.082       .  S
C361        C399   1.438       .  S
C361        C362   1.379       .  A
C361        C828   1.379       .  A
C362        H364   1.082       .  S
N365        N366   1.322       .  A
N365        C369   1.347       .  A
N365       Cu373   2.077       .  S
N366        C367   1.342       .  A
N366       Cu372   2.059       .  S
C367        C368   1.376       .  A
C367        H370   1.082       .  S
C368        C412   1.434       .  S
C368        C369   1.381       .  A
C369        H371   1.082       .  S
Cu372       N843   2.059       .  S
Cu373       N383   2.078       .  S
Cu374       N376   2.077       .  S
Cu374       N382   2.078       .  S
N375        N376   1.322       .  A
N375        C379   1.342       .  A
N375       Cu840   2.059   1_554  S
N376        C377   1.347       .  A
C377        C378   1.381       .  A
C377        H380   1.082       .  S
C378        C410   1.434       .  S
C378        C379   1.376       .  A
C379        H381   1.082       .  S
N382        N851   1.325   1_554  A
N382        C386   1.346       .  A
N383        N850   1.325       .  A
N383        C384   1.346       .  A
C384        C385   1.379       .  A
C384        H387   1.082       .  S
C385        C397   1.438       .  S
C385        C854   1.379       .  A
C386        C853   1.379   1_554  A
C386        H388   1.082       .  S
C389        C403   1.446       .  S
C389        C390   1.410       .  A
C389        C394   1.402       .  A
C390        C401   1.446       .  S
C390        C391   1.402       .  A
C391        C392   1.402       .  A
C391        H396   1.085       .  S
C392        C398   1.446       .  S
C392        C393   1.410       .  A
C393        C400   1.446       .  S
C393        C394   1.402       .  A
C394        H395   1.085       .  S
C397        C398   1.207       .  T
C399        C400   1.207       .  T
C401        C402   1.207       .  T
C403        C404   1.207       .  T
C405        C406   1.204       .  T
C407        C408   1.204       .  T
C409        C410   1.204       .  T
C411        C412   1.204       .  T
C413        C414   1.204       .  T
C415        C416   1.204       .  T
C417        C418   1.204       .  T
C419        C420   1.204       .  T
C421        C422   1.207       .  T
C423        C424   1.207       .  T
C425        C426   1.207       .  T
C427        C428   1.207       .  T
C429        C430   1.205       .  T
C431        C432   1.205       .  T
C433        C434   1.204       .  T
C435        C436   1.204       .  T
C437        C438   1.204       .  T
C439        C440   1.204       .  T
C441        C910   1.207       .  T
C442        C909   1.207       .  T
C443        C444   1.204       .  T
C445        C446   1.204       .  T
C447        C916   1.207       .  T
C448        C915   1.207       .  T
C449        C450   1.205       .  T
C451        C452   1.205       .  T
C453        C454   1.207       .  T
C455        C456   1.204       .  T
C457        C458   1.204       .  T
C459        C460   1.207       .  T
C460        C580   1.446       .  S
C461        C462   1.205       .  T
C463        C464   1.205       .  T
C465        C466   1.205       .  T
C467        C468   1.205       .  T
O469       Cu477   2.007       .  S
O469        C479   1.276       .  A
O470       Cu477   2.007       .  S
O470        C480   1.276       .  A
O471       Cu477   2.007       .  S
O471        C481   1.276       .  A
O472       Cu477   2.007       .  S
O472        C482   1.276       .  A
O473       Cu478   2.008       .  S
O473        C482   1.276       .  A
O474       Cu478   2.008       .  S
O474        C481   1.276       .  A
O475       Cu478   2.008       .  S
O475        C480   1.276       .  A
O476       Cu478   2.008       .  S
O476        C479   1.276       .  A
Cu477      Cu478   2.381       .  S
C479        C935   1.433       .  S
C480        C932   1.433       .  S
C481        C930   1.433       .  S
C482        C933   1.433       .  S
N483        N484   1.322       .  A
N483        C487   1.347       .  A
N483       Cu491   2.078       .  S
N484        C485   1.342       .  A
C485        C486   1.376       .  A
C485        H488   1.082       .  S
C486        C925   1.435       .  S
C486        C487   1.381       .  A
C487        H489   1.082       .  S
Cu490       N493   2.059       .  S
Cu491       N501   2.079       .  S
Cu492       N494   2.078       .  S
Cu492       N500   2.079       .  S
N493        N494   1.322       .  A
N493        C497   1.342       .  A
N494        C495   1.347       .  A
C495        C496   1.381       .  A
C495        H498   1.082       .  S
C496        C924   1.435       .  S
C496        C497   1.376       .  A
C497        H499   1.082       .  S
N500        C504   1.346       .  A
N501        C502   1.346       .  A
C502        H505   1.082       .  S
C503        C927   1.439       .  S
C503        C504   1.380       .  A
C504        H506   1.082       .  S
N507        N508   1.322       .  A
N507        C511   1.347       .  A
N507       Cu515   2.078       .  S
N508        C509   1.342       .  A
N508       Cu514   2.060       .  S
C509        C510   1.376       .  A
C509        H512   1.082       .  S
C510        C917   1.435       .  S
C510        C511   1.382       .  A
C511        H513   1.082       .  S
Cu515       N525   2.079       .  S
Cu516       N518   2.078       .  S
Cu516       N524   2.079       .  S
N517        N518   1.322       .  A
N517        C521   1.342       .  A
N518        C519   1.347       .  A
C519        C520   1.382       .  A
C519        H522   1.082       .  S
C520        C919   1.435       .  S
C520        C521   1.376       .  A
C521        H523   1.082       .  S
N524        C528   1.346       .  A
N525        C526   1.346       .  A
C526        C527   1.379       .  A
C526        H529   1.082       .  S
C527        C922   1.438       .  S
C528        H530   1.082       .  S
N531        N532   1.322       .  A
N531        C535   1.347       .  A
N531       Cu539   2.078       .  S
N532        C533   1.342       .  A
N532       Cu538   2.059       .  S
C533        C534   1.376       .  A
C533        H536   1.082       .  S
C534        C913   1.435       .  S
C534        C535   1.381       .  A
C535        H537   1.082       .  S
Cu539       N549   2.079       .  S
Cu540       N542   2.078       .  S
Cu540       N548   2.079       .  S
N541        N542   1.322       .  A
N541        C545   1.342       .  A
N542        C543   1.347       .  A
C543        C544   1.381       .  A
C543        H546   1.082       .  S
C544        C911   1.435       .  S
C544        C545   1.376       .  A
C545        H547   1.082       .  S
N548        C552   1.346       .  A
N549        C550   1.346       .  A
C550        H553   1.082       .  S
C551        C915   1.439       .  S
C551        C552   1.380       .  A
C552        H554   1.082       .  S
N555        N556   1.322       .  A
N555        C559   1.347       .  A
N555       Cu563   2.078       .  S
N556        C557   1.342       .  A
N556       Cu562   2.060       .  S
C557        C558   1.376       .  A
C557        H560   1.082       .  S
C558        C936   1.435       .  S
C558        C559   1.382       .  A
C559        H561   1.082       .  S
Cu563       N573   2.079       .  S
Cu564       N566   2.078       .  S
Cu564       N572   2.079       .  S
N565        N566   1.322       .  A
N565        C569   1.342       .  A
N566        C567   1.347       .  A
C567        C568   1.382       .  A
C567        H570   1.082       .  S
C568        C934   1.435       .  S
C568        C569   1.376       .  A
C569        H571   1.082       .  S
N572        C576   1.346       .  A
N573        C574   1.346       .  A
C574        C575   1.379       .  A
C574        H577   1.082       .  S
C575        C910   1.438       .  S
C576        H578   1.082       .  S
C579        C921   1.446       .  S
C579        C580   1.410       .  A
C579        C584   1.402   1_565  A
C581        H586   1.085       .  S
C582        C909   1.446       .  S
C582        C583   1.410   1_554  A
C583        C916   1.446       .  S
C583        C584   1.402       .  A
C584        H585   1.085       .  S
O587       Cu595   2.006       .  S
O587        C597   1.276       .  A
O588       Cu595   2.007       .  S
O588        C598   1.276       .  A
O589       Cu595   2.007       .  S
O589        C599   1.276       .  A
O590       Cu595   2.006       .  S
O590        C600   1.276       .  A
O591       Cu596   2.008       .  S
O591        C600   1.276       .  A
O592       Cu596   2.008       .  S
O592        C599   1.276       .  A
O593       Cu596   2.008       .  S
O593        C598   1.276       .  A
O594       Cu596   2.008       .  S
O594        C597   1.276       .  A
Cu595      Cu596   2.381       .  S
C597        C904   1.433       .  S
C598        C908   1.433       .  S
C599        C905   1.433       .  S
C600        C901   1.433       .  S
O601       Cu609   2.008       .  S
O601        C611   1.276       .  A
O602       Cu609   2.008       .  S
O602        C612   1.276       .  A
O603       Cu609   2.008       .  S
O603        C613   1.276       .  A
O604       Cu609   2.008       .  S
O604        C614   1.276       .  A
O605       Cu610   2.007       .  S
O605        C614   1.276       .  A
O606       Cu610   2.007       .  S
O606        C613   1.276       .  A
O607       Cu610   2.007       .  S
O607        C612   1.276       .  A
O608       Cu610   2.007       .  S
O608        C611   1.276       .  A
Cu609      Cu610   2.381       .  S
C611        C918   1.433       .  S
C612        C898   1.433       .  S
C613        C899   1.433       .  S
C614        C920   1.433       .  S
N615        N616   1.322       .  A
N615        C619   1.347       .  A
N615       Cu623   2.078       .  S
N616        C617   1.342       .  A
C617        C618   1.376       .  A
C617        H620   1.082       .  S
C618        C907   1.434       .  S
C618        C619   1.381       .  A
C619        H621   1.082       .  S
Cu622       N625   2.059       .  S
Cu623       N633   2.079       .  S
Cu624       N626   2.078       .  S
Cu624       N632   2.079       .  S
N625        N626   1.322       .  A
N625        C629   1.342       .  A
N626        C627   1.347       .  A
C627        C628   1.381       .  A
C627        H630   1.082       .  S
C628        C906   1.434       .  S
C628        C629   1.376       .  A
C629        H631   1.082       .  S
N632        C636   1.346       .  A
N633        C634   1.346       .  A
C634        H637   1.082       .  S
C635        C895   1.439       .  S
C635        C636   1.380       .  A
C636        H638   1.082       .  S
N639        N640   1.322       .  A
N639        C643   1.347       .  A
N639       Cu647   2.078       .  S
N640        C641   1.342       .  A
C641        C642   1.376       .  A
C641        H644   1.082       .  S
C642        C897   1.435       .  S
C642        C643   1.382       .  A
C643        H645   1.082       .  S
Cu646       N649   2.060   1_554  S
Cu647       N657   2.079       .  S
Cu648       N650   2.078       .  S
Cu648       N656   2.079       .  S
N649        N650   1.322       .  A
N649        C653   1.342       .  A
N650        C651   1.347       .  A
C651        C652   1.382       .  A
C651        H654   1.082       .  S
C652        C900   1.435       .  S
C652        C653   1.376       .  A
C653        H655   1.082       .  S
N656        C660   1.346       .  A
N657        C658   1.346       .  A
C658        H661   1.082       .  S
C659        C894   1.438       .  S
C659        C660   1.379   1_554  A
C660        H662   1.082       .  S
N663        N664   1.322       .  A
N663        C667   1.347       .  A
N663       Cu671   2.078       .  S
N664        C665   1.342       .  A
C665        C666   1.376       .  A
C665        H668   1.082       .  S
C666        C929   1.435       .  S
C666        C667   1.382       .  A
C667        H669   1.082       .  S
Cu670       N673   2.060       .  S
Cu671       N681   2.079       .  S
Cu672       N674   2.078       .  S
Cu672       N680   2.079       .  S
N673        N674   1.322       .  A
N673        C677   1.342       .  A
N674        C675   1.347       .  A
C675        C676   1.382       .  A
C675        H678   1.082       .  S
C676        C931   1.435       .  S
C676        C677   1.376       .  A
C677        H679   1.082       .  S
N680        C684   1.346       .  A
N681        C682   1.346       .  A
C682        H685   1.082       .  S
C683        C891   1.439       .  S
C683        C684   1.379       .  A
C684        H686   1.082       .  S
N687        N688   1.322       .  A
N687        C691   1.347       .  A
N687       Cu695   2.078       .  S
N688        C689   1.342       .  A
C689        C690   1.376       .  A
C689        H692   1.082       .  S
C690        C887   1.434       .  S
C690        C691   1.381       .  A
C691        H693   1.082       .  S
Cu694       N697   2.059       .  S
Cu695       N705   2.079       .  S
Cu696       N698   2.078       .  S
Cu696       N704   2.079       .  S
N697        N698   1.322       .  A
N697        C701   1.342       .  A
N698        C699   1.347       .  A
C699        C700   1.381       .  A
C699        H702   1.082       .  S
C700        C885   1.434       .  S
C700        C701   1.376       .  A
C701        H703   1.082       .  S
N704        C708   1.346       .  A
N705        C706   1.346       .  A
C706        H709   1.082       .  S
C707        C889   1.438       .  S
C707        C708   1.380       .  A
C708        H710   1.082       .  S
C711        C893   1.446       .  S
C711        C712   1.410       .  A
C711        C716   1.402   1_455  A
C712        C896   1.446       .  S
C712        C713   1.402   1_455  A
C713        C714   1.403       .  A
C713        H718   1.085       .  S
C714        C892   1.446       .  S
C714        C715   1.410       .  A
C715        C890   1.446       .  S
C715        C716   1.402       .  A
C716        H717   1.085       .  S
O719       Cu727   2.007       .  S
O719        C729   1.276       .  A
O720       Cu727   2.007       .  S
O720        C730   1.276       .  A
O721       Cu727   2.007       .  S
O721        C731   1.276       .  A
O722       Cu727   2.007       .  S
O722        C732   1.276       .  A
O723       Cu728   2.008       .  S
O723        C732   1.276       .  A
O724       Cu728   2.008       .  S
O724        C731   1.276       .  A
O725       Cu728   2.008       .  S
O725        C730   1.276       .  A
O726       Cu728   2.008       .  S
O726        C729   1.276       .  A
Cu727      Cu728   2.381       .  S
C729        C914   1.433       .  S
C730        C883   1.433       .  S
C731        C882   1.433       .  S
C732        C912   1.433       .  S
O733       Cu741   2.006       .  S
O733        C743   1.276       .  A
O734       Cu741   2.006       .  S
O734        C744   1.276       .  A
O735       Cu741   2.006       .  S
O735        C745   1.276       .  A
O736       Cu741   2.006       .  S
O736        C746   1.276       .  A
O737       Cu742   2.008       .  S
O737        C746   1.276       .  A
O738       Cu742   2.007       .  S
O738        C745   1.276       .  A
O739       Cu742   2.007       .  S
O739        C744   1.276       .  A
O740       Cu742   2.008       .  S
O740        C743   1.276       .  A
Cu741      Cu742   2.381       .  S
C743        C879   1.433       .  S
C744        C888   1.433       .  S
C745        C886   1.433       .  S
C746        C877   1.433       .  S
O747       Cu755   2.007       .  S
O747        C757   1.276       .  A
O748       Cu755   2.007       .  S
O748        C758   1.276       .  A
O749       Cu755   2.007       .  S
O749        C759   1.276       .  A
O750       Cu755   2.007       .  S
O750        C760   1.276       .  A
O751       Cu756   2.008       .  S
O751        C760   1.276       .  A
O752       Cu756   2.008       .  S
O752        C759   1.276       .  A
O753       Cu756   2.008       .  S
O753        C758   1.276       .  A
O754       Cu756   2.008       .  S
O754        C757   1.276       .  A
Cu755      Cu756   2.381       .  S
C757        C875   1.433       .  S
C758        C926   1.433       .  S
C759        C923   1.433       .  S
C760        C874   1.433       .  S
N761        N762   1.322       .  A
N761        C765   1.347       .  A
N761       Cu769   2.077       .  S
N762        C763   1.342       .  A
N762       Cu768   2.059       .  S
C763        C764   1.376       .  A
C763        H766   1.082       .  S
C764        C903   1.434       .  S
C764        C765   1.381       .  A
C765        H767   1.082       .  S
Cu769       N779   2.078       .  S
Cu770       N772   2.077       .  S
Cu770       N778   2.078       .  S
N771        N772   1.322       .  A
N771        C775   1.342       .  A
N772        C773   1.347       .  A
C773        C774   1.381       .  A
C773        H776   1.082       .  S
C774        C902   1.434       .  S
C774        C775   1.376       .  A
C775        H777   1.082       .  S
N778        C782   1.346       .  A
N779        C780   1.346       .  A
C780        C781   1.379       .  A
C780        H783   1.082       .  S
C781        C872   1.438       .  S
C782        H784   1.082       .  S
N785        N786   1.322       .  A
N785        C789   1.347       .  A
N785       Cu793   2.077       .  S
N786        C787   1.342       .  A
C787        C788   1.376       .  A
C787        H790   1.082       .  S
C788        C876   1.434       .  S
C788        C789   1.381       .  A
C789        H791   1.082       .  S
Cu792       N795   2.060   1_554  S
Cu793       N803   2.078       .  S
Cu794       N796   2.077       .  S
Cu794       N802   2.078       .  S
N795        N796   1.322       .  A
N795        C799   1.342       .  A
N796        C797   1.347       .  A
C797        C798   1.381       .  A
C797        H800   1.082       .  S
C798        C873   1.434       .  S
C798        C799   1.376       .  A
C799        H801   1.082       .  S
N802        C806   1.346       .  A
N803        C804   1.346       .  A
C804        H807   1.082       .  S
C805        C870   1.438   1_554  S
C805        C806   1.379   1_554  A
C806        H808   1.082       .  S
N809        N810   1.322       .  A
N809        C813   1.347       .  A
N809       Cu817   2.077       .  S
N810        C811   1.342       .  A
C811        C812   1.376       .  A
C811        H814   1.082       .  S
C812        C884   1.434       .  S
C812        C813   1.381       .  A
C813        H815   1.082       .  S
Cu816       N819   2.060       .  S
Cu817       N827   2.078       .  S
Cu818       N820   2.077       .  S
Cu818       N826   2.078       .  S
N819        N820   1.322       .  A
N819        C823   1.342       .  A
N820        C821   1.347       .  A
C821        C822   1.381       .  A
C821        H824   1.082       .  S
C822        C881   1.434       .  S
C822        C823   1.376       .  A
C823        H825   1.082       .  S
N826        C830   1.346       .  A
N827        C828   1.346       .  A
C828        H831   1.082       .  S
C829        C867   1.438       .  S
C829        C830   1.379       .  A
C830        H832   1.082       .  S
N833        N834   1.322       .  A
N833        C837   1.347       .  A
N833       Cu841   2.077       .  S
N834        C835   1.342       .  A
N834       Cu840   2.059       .  S
C835        C836   1.376       .  A
C835        H838   1.082       .  S
C836        C880   1.434       .  S
C836        C837   1.381       .  A
C837        H839   1.082       .  S
Cu841       N851   2.078       .  S
Cu842       N844   2.077       .  S
Cu842       N850   2.078       .  S
N843        N844   1.322       .  A
N843        C847   1.342       .  A
N844        C845   1.347       .  A
C845        C846   1.381       .  A
C845        H848   1.082       .  S
C846        C878   1.434       .  S
C846        C847   1.376       .  A
C847        H849   1.082       .  S
N850        C854   1.346       .  A
N851        C852   1.346       .  A
C852        C853   1.379       .  A
C852        H855   1.082       .  S
C853        C865   1.438       .  S
C854        H856   1.082       .  S
C857        C871   1.446       .  S
C857        C858   1.410       .  A
C857        C862   1.402       .  A
C858        C869   1.446       .  S
C858        C859   1.402       .  A
C859        C860   1.402       .  A
C859        H864   1.085   1_556  S
C860        C866   1.446       .  S
C860        C861   1.410       .  A
C861        C868   1.446       .  S
C861        C862   1.402       .  A
C862        H863   1.085       .  S
C865        C866   1.207       .  T
C867        C868   1.207       .  T
C869        C870   1.207       .  T
C871        C872   1.207       .  T
C873        C874   1.204       .  T
C875        C876   1.204       .  T
C877        C878   1.204       .  T
C879        C880   1.204       .  T
C881        C882   1.204       .  T
C883        C884   1.204       .  T
C885        C886   1.204       .  T
C887        C888   1.204       .  T
C889        C890   1.207       .  T
C891        C892   1.207       .  T
C893        C894   1.207   1_556  T
C895        C896   1.207       .  T
C897        C898   1.205       .  T
C899        C900   1.205       .  T
C901        C902   1.204       .  T
C903        C904   1.204       .  T
C905        C906   1.204       .  T
C907        C908   1.204       .  T
C911        C912   1.204       .  T
C913        C914   1.204       .  T
C917        C918   1.205       .  T
C919        C920   1.205       .  T
C921        C922   1.207       .  T
C923        C924   1.204       .  T
C925        C926   1.204       .  T
C927        C928   1.207       .  T
C929        C930   1.205       .  T
C931        C932   1.205       .  T
C933        C934   1.205       .  T
C935        C936   1.205       .  T
