geometry optimzed in LAMMPS
_audit_creation_date              2020-11-30 
_audit_creation_method            'lammps2cif' 
_symmetry_space_group_name_H-M    'P1' 
_symmetry_Int_Tables_number       1 
_symmetry_cell_setting            triclinic 
loop_ 
_symmetry_equiv_pos_as_xyz 
  x,y,z 
_cell_length_a                    53.74463585 
_cell_length_b                    53.39159242464436 
_cell_length_c                    53.39412288426234 
_cell_angle_alpha                 90.18966866137835 
_cell_angle_beta                  90.27226638184658 
_cell_angle_gamma                 89.86050269711514 
loop_ 
_atom_site_label 
_atom_site_type_symbol 
_atom_site_fract_x 
_atom_site_fract_y 
_atom_site_fract_z 
_atom_site_charge 
O1          O  0.27775097  0.70683367  0.76628111    -0.79300
O2          O  0.27039290  0.80343140  0.72926446    -0.79300
O3          O  0.25091644  0.72106297  0.71031247    -0.79300
O4          O  0.25305863  0.77887774  0.80855236    -0.79300
O5          O  0.27255059  0.75560060  0.70723954    -0.79400
O6          O  0.27681881  0.74517032  0.80391700    -0.79300
O7          O  0.27436851  0.79924253  0.76948589    -0.79300
O8          O  0.25462448  0.70452178  0.73161936    -0.79300
C9          C  0.27240908  0.69608495  0.74567892     1.10400
C10         C  0.27984053  0.81076999  0.74977357     1.10300
C11         C  0.26659160  0.73448367  0.69813503     1.10400
C12         C  0.27031650  0.76453202  0.81631410     1.10300
O13         O  0.22470830  0.73957343  0.80539103    -0.79300
O14         O  0.23518806  0.78501506  0.69591902    -0.79400
O15         O  0.20512202  0.70582384  0.73387186    -0.79300
O16         O  0.22776603  0.81496783  0.77862772    -0.79300
O17         O  0.21905387  0.79776378  0.74144086    -0.79300
O18         O  0.22554398  0.70156593  0.76979152    -0.79300
O19         O  0.20822506  0.76813929  0.78108422    -0.79300
O20         O  0.21686106  0.74831382  0.70427221    -0.79300
Co21       Co  0.25178944  0.72570590  0.78426137     1.51500
Co22       Co  0.24678170  0.77429453  0.72666753     1.51700
Co23       Co  0.22861142  0.73233364  0.73909896     1.51600
Co24       Co  0.24153403  0.78291129  0.77341956     1.51500
O25         O  0.25323276  0.75357740  0.75686787    -1.41200
C26         C  0.20696701  0.75420392  0.80013233     1.10300
C27         C  0.22080068  0.76734398  0.68935413     1.10400
C28         C  0.20947657  0.69343284  0.75377307     1.10300
C29         C  0.21760960  0.81654577  0.75704033     1.10300
O30         O  0.74298961  0.21031995  0.72271852    -0.79300
O31         O  0.75906038  0.21829191  0.79507538    -0.79300
O32         O  0.79386645  0.23008003  0.74295756    -0.79300
O33         O  0.69461522  0.24507264  0.78595269    -0.79300
O34         O  0.80827367  0.23140572  0.78177934    -0.79400
O35         O  0.70659811  0.21292897  0.76259424    -0.79300
O36         O  0.73604792  0.24755394  0.81351051    -0.79300
O37         O  0.76550884  0.23914158  0.70443692    -0.79300
C38         C  0.75621002  0.21742538  0.70437378     1.10400
C39         C  0.74688968  0.22634618  0.81406494     1.10300
C40         C  0.81143920  0.22531479  0.75894872     1.10400
C41         C  0.69192065  0.22246225  0.77878616     1.10300
O42         O  0.68956034  0.25861834  0.74167645    -0.79300
O43         O  0.79667113  0.27569596  0.76017081    -0.79400
O44         O  0.74967306  0.28710770  0.71764525    -0.79300
O45         O  0.74954689  0.29496152  0.79332377    -0.79300
O46         O  0.77735395  0.26651204  0.80410792    -0.79300
O47         O  0.72317157  0.25770165  0.70526272    -0.79300
O48         O  0.70488764  0.29150701  0.76177096    -0.79300
O49         O  0.80022167  0.27382791  0.71887921    -0.79300
Co50       Co  0.71777756  0.23526741  0.73486607     1.51500
Co51       Co  0.77576353  0.24474110  0.77424336     1.51700
Co52       Co  0.77075255  0.26088947  0.73407172     1.51600
Co53       Co  0.72300546  0.26949902  0.78622320     1.51500
O54         O  0.74289023  0.25285542  0.75783982    -1.41200
C55         C  0.68719303  0.28095848  0.74971491     1.10300
C56         C  0.80878279  0.28109916  0.73987292     1.10400
C57         C  0.73317712  0.27908322  0.70222363     1.10300
C58         C  0.76759244  0.28787730  0.80728043     1.10300
O59         O  0.70367619  0.71499305  0.21293353    -0.79300
O60         O  0.78421237  0.74177876  0.20383157    -0.79300
O61         O  0.72133389  0.79297197  0.23595190    -0.79300
O62         O  0.77213774  0.67817249  0.25038701    -0.79300
O63         O  0.75130163  0.78680339  0.20894306    -0.79400
O64         O  0.74521017  0.68337377  0.22003380    -0.79300
O65         O  0.80002257  0.71587615  0.23231328    -0.79300
O66         O  0.71330669  0.75493676  0.21428845    -0.79300
C67         C  0.70087515  0.73715793  0.20496323     1.10400
C68         C  0.80023551  0.72552723  0.21044070     1.10300
C69         C  0.73442746  0.80106000  0.21793277     1.10400
C70         C  0.76129940  0.66990259  0.23087664     1.10300
O71         O  0.73284010  0.68201797  0.27353745    -0.79300
O72         O  0.76575962  0.78604190  0.25742070    -0.79400
O73         O  0.68747803  0.75252966  0.26026472    -0.79300
O74         O  0.79288209  0.74491031  0.27785527    -0.79300
O75         O  0.79959746  0.76439059  0.24248850    -0.79300
O76         O  0.69479936  0.71251634  0.26563819    -0.79300
O77         O  0.75956018  0.70588803  0.29442002    -0.79300
O78         O  0.73357940  0.77522238  0.28008293    -0.79300
Co79       Co  0.72167793  0.70093478  0.24261344     1.51500
Co80       Co  0.76536422  0.75892957  0.23041755     1.51700
Co81       Co  0.72141603  0.75817608  0.25017426     1.51600
Co82       Co  0.77823029  0.71327802  0.26304915     1.51500
O83         O  0.74664107  0.73055845  0.24733221    -1.41200
C84         C  0.74434359  0.68762644  0.29376441     1.10300
C85         C  0.75201836  0.78927017  0.27660833     1.10400
C86         C  0.68032535  0.73117360  0.26616680     1.10300
C87         C  0.80649170  0.75923125  0.26453456     1.10300
C88         C  0.49941087  0.02188563  0.99380462     0.03100
C89         C  0.51830832  0.02024217  0.01262566     0.03100
C90         C  0.51649889  0.00195243  0.03180772     0.03100
C91         C  0.49731555  0.98373036  0.03135063     0.03100
C92         C  0.47868350  0.98508005  0.01230626     0.03100
C93         C  0.47945634  0.00419455  0.99355506     0.03100
C94         C  0.67759358  0.02562137  0.19215757     0.04000
C95         C  0.65770992  0.02274783  0.17527236    -0.12200
C96         C  0.64883237  0.99907950  0.16797091     0.01500
C97         C  0.66068200  0.97790621  0.17812165    -0.10700
C98         C  0.68188942  0.98023094  0.19345726     0.04000
C99         C  0.69004355  0.00415101  0.20101146    -0.10100
H100        H  0.64946585  0.03947552  0.16741553     0.09600
H101        H  0.65389123  0.95933798  0.17407998     0.07100
H102        H  0.70642006  0.00601067  0.21275572     0.06900
C103        C  0.67903814  0.18288684  0.02850351     0.04000
C104        C  0.69270365  0.18759255  0.00640775    -0.12200
C105        C  0.68627960  0.17557926  0.98364963     0.01500
C106        C  0.66677708  0.15804353  0.98333374    -0.10700
C107        C  0.65311343  0.15295787  0.00511008     0.04000
C108        C  0.65894216  0.16606687  0.02718121    -0.10100
H109        H  0.70837978  0.20026294  0.00682488     0.09600
H110        H  0.66269484  0.14799904  0.96616007     0.07100
H111        H  0.64789263  0.16268146  0.04374590     0.06900
C112        C  0.32368172  0.02453847  0.82856696     0.04000
C113        C  0.33934109  0.02108469  0.84961647    -0.12200
C114        C  0.34983877  0.99773220  0.85521358     0.01500
C115        C  0.34362180  0.97691642  0.84058907    -0.10700
C116        C  0.32739258  0.97915400  0.81993991     0.04000
C117        C  0.31787380  0.00317404  0.81368746    -0.10100
H118        H  0.34393112  0.03675151  0.86169845     0.09600
H119        H  0.35186356  0.95891600  0.84505949     0.07100
H120        H  0.30620534  0.00507400  0.79727347     0.06900
C121        C  0.51806590  0.18760427  0.83690158     0.04000
C122        C  0.51838031  0.17462659  0.85967323    -0.12200
C123        C  0.49641517  0.16568704  0.87065353     0.01500
C124        C  0.47354839  0.17222449  0.85948132    -0.10700
C125        C  0.47253436  0.18732642  0.83794215     0.04000
C126        C  0.49498041  0.19474411  0.82645123    -0.10100
H127        H  0.53623841  0.17043686  0.86818023     0.09600
H128        H  0.45635135  0.16528496  0.86712449     0.07100
H129        H  0.49442092  0.20511292  0.80905930     0.06900
C130        C  0.52982531  0.79772929  0.16616298     0.04000
C131        C  0.52924537  0.81757604  0.14889548    -0.12200
C132        C  0.50704763  0.83030219  0.14346369     0.01500
C133        C  0.48507284  0.82322370  0.15564761    -0.10700
C134        C  0.48505792  0.80380376  0.17348350     0.04000
C135        C  0.50761004  0.79093220  0.17850340    -0.10100
H136        H  0.54621530  0.82314928  0.13955702     0.09600
H137        H  0.46788861  0.83289865  0.15116375     0.07100
H138        H  0.50780276  0.77558239  0.19171221     0.06900
C139        C  0.31684862  0.82460562  0.03383934     0.04000
C140        C  0.30816901  0.81457976  0.01109077    -0.12200
C141        C  0.31982727  0.82098832  0.98860813     0.01500
C142        C  0.33937154  0.83819814  0.98866430    -0.10700
C143        C  0.34859159  0.84813457  0.01118235     0.04000
C144        C  0.33726006  0.84100301  0.03376410    -0.10100
H145        H  0.29262230  0.80168990  0.01090236     0.09600
H146        H  0.34693238  0.84415440  0.97090903     0.07100
H147        H  0.34387208  0.84869640  0.05135343     0.06900
C148        C  0.03358993  0.49176369  0.97832653     0.03100
C149        C  0.01697412  0.47114106  0.98044987     0.03100
C150        C  0.99885038  0.47098079  0.99984995     0.03100
C151        C  0.99665238  0.49194858  0.01642747     0.03100
C152        C  0.01234023  0.51326348  0.01314511     0.03100
C153        C  0.03078278  0.51311666  0.99406375     0.03100
C154        C  0.16619430  0.69657000  0.96529956     0.04000
C155        C  0.18239259  0.69998249  0.98596687    -0.12200
C156        C  0.17995137  0.68522613  0.00772405     0.01500
C157        C  0.16074769  0.66746283  0.00881422    -0.10700
C158        C  0.14464498  0.66369424  0.98855786     0.04000
C159        C  0.14750772  0.67822138  0.96691013    -0.10100
H160        H  0.19691612  0.71390548  0.98509592     0.09600
H161        H  0.15874721  0.65589713  0.02531084     0.07100
H162        H  0.13539626  0.67476769  0.95099166     0.06900
C163        C  0.17460044  0.51544677  0.79948903     0.04000
C164        C  0.15595362  0.51403501  0.81781148    -0.12200
C165        C  0.15204346  0.49195665  0.83152730     0.01500
C166        C  0.16719115  0.47110229  0.82673263    -0.10700
C167        C  0.18571074  0.47190838  0.80830686     0.04000
C168        C  0.18947685  0.49421481  0.79485609    -0.10100
H169        H  0.14494696  0.53051033  0.82204251     0.09600
H170        H  0.16507241  0.45429953  0.83780107     0.07100
H171        H  0.20423343  0.49519380  0.78114966     0.06900
C172        C  0.01756463  0.66655769  0.18458637     0.04000
C173        C  0.99477471  0.67898738  0.18911199    -0.12200
C174        C  0.97376005  0.67403499  0.17388167     0.01500
C175        C  0.97553293  0.65605953  0.15469975    -0.10700
C176        C  0.99791934  0.64335675  0.15018429     0.04000
C177        C  0.01876135  0.64876394  0.16512897    -0.10100
H178        H  0.99361556  0.69307629  0.20369566     0.09600
H179        H  0.95945567  0.65217090  0.14301836     0.07100
H180        H  0.03617516  0.63918364  0.16142119     0.06900
C181        C  0.85108938  0.46278439  0.19118510     0.04000
C182        C  0.86413222  0.46176017  0.16842734    -0.12200
C183        C  0.86633152  0.48298662  0.15297679     0.01500
C184        C  0.85452123  0.50531017  0.16039875    -0.10700
C185        C  0.83984579  0.50623419  0.18200384     0.04000
C186        C  0.83848844  0.48507562  0.19756450    -0.10100
H187        H  0.87223498  0.44414644  0.16251323     0.09600
H188        H  0.85659391  0.52215206  0.14940008     0.07100
H189        H  0.82763197  0.48602368  0.21458787     0.06900
C190        C  0.02231723  0.31149242  0.81469255     0.04000
C191        C  0.02108005  0.32777162  0.83558276    -0.12200
C192        C  0.00051629  0.34352295  0.83986427     0.01500
C193        C  0.97954634  0.34119157  0.82422918    -0.10700
C194        C  0.97897930  0.32349400  0.80466667     0.04000
C195        C  0.00074901  0.30942138  0.79939262    -0.10100
H196        H  0.03652612  0.32870617  0.84862248     0.09600
H197        H  0.96353117  0.35313191  0.82719761     0.07100
H198        H  0.00079913  0.29755146  0.78298810     0.06900
C199        C  0.84055127  0.30619538  0.02401504     0.04000
C200        C  0.82778871  0.30196915  0.00117076    -0.12200
C201        C  0.83439262  0.31531136  0.97942322     0.01500
C202        C  0.85428927  0.33225926  0.98054443    -0.10700
C203        C  0.86695889  0.33669141  0.00297554     0.04000
C204        C  0.85999417  0.32384871  0.02463369    -0.10100
H205        H  0.81268894  0.28863115  0.00034262     0.09600
H206        H  0.85969380  0.34246563  0.96391469     0.07100
H207        H  0.86963910  0.32782077  0.04206926     0.06900
C208        C  0.50366108  0.49921784  0.53548490     0.03100
C209        C  0.52258297  0.49651105  0.51701560     0.03100
C210        C  0.52440524  0.51405343  0.49734295     0.03100
C211        C  0.50509044  0.53176197  0.49388429     0.03100
C212        C  0.48600948  0.53463393  0.51213553     0.03100
C213        C  0.48712784  0.52057812  0.53520861     0.03100
C214        C  0.52133959  0.32081150  0.67547167     0.04000
C215        C  0.52046567  0.34037956  0.65791264    -0.12200
C216        C  0.49862808  0.34567692  0.64446948     0.01500
C217        C  0.47742918  0.33109426  0.64844394    -0.10700
C218        C  0.47758272  0.31146503  0.66585498     0.04000
C219        C  0.49954820  0.30662526  0.67972206    -0.10100
H220        H  0.53657601  0.35227517  0.65547376     0.09600
H221        H  0.46040817  0.33558787  0.63843431     0.07100
H222        H  0.49973647  0.29179617  0.69351626     0.06900
C223        C  0.30381191  0.67258964  0.47623119     0.04000
C224        C  0.29655013  0.68312212  0.49936911    -0.12200
C225        C  0.31137051  0.67961946  0.52098171     0.01500
C226        C  0.33334950  0.66539010  0.51902127    -0.10700
C227        C  0.34137700  0.65551928  0.49603260     0.04000
C228        C  0.32653905  0.65956946  0.47471913    -0.10100
H229        H  0.27908280  0.69316831  0.50066942     0.09600
H230        H  0.34400965  0.66156594  0.53580819     0.07100
H231        H  0.33268696  0.65259893  0.45670413     0.06900
C232        C  0.69450027  0.52165970  0.34858981     0.04000
C233        C  0.70076425  0.49908394  0.33603649    -0.12200
C234        C  0.68697507  0.47698190  0.34039699     0.01500
C235        C  0.66694877  0.47765953  0.35701430    -0.10700
C236        C  0.66039806  0.49979360  0.36932043     0.04000
C237        C  0.67407392  0.52167330  0.36499973    -0.10100
H238        H  0.71656445  0.49851130  0.32353979     0.09600
H239        H  0.65617289  0.46082665  0.36016236     0.07100
H240        H  0.66875595  0.53881628  0.37452471     0.06900
C241        C  0.47017818  0.65122424  0.30131602     0.04000
C242        C  0.49134498  0.66432179  0.29336720    -0.12200
C243        C  0.51441410  0.66061821  0.30541078     0.01500
C244        C  0.51608874  0.64329162  0.32517785    -0.10700
C245        C  0.49519095  0.62976621  0.33285655     0.04000
C246        C  0.47234867  0.63386690  0.32083188    -0.10100
H247        H  0.48971777  0.67757968  0.27816697     0.09600
H248        H  0.53352162  0.64095411  0.33518947     0.07100
H249        H  0.45597395  0.62389697  0.32709550     0.06900
C250        C  0.31481201  0.52264157  0.68438927     0.04000
C251        C  0.30118538  0.50022547  0.68533707    -0.12200
C252        C  0.30907763  0.47899175  0.67159768     0.01500
C253        C  0.32986088  0.48104808  0.65562960    -0.10700
C254        C  0.34406343  0.50329844  0.65492873     0.04000
C255        C  0.33659271  0.52346524  0.67024587    -0.10100
H256        H  0.28473560  0.49918749  0.69693170     0.09600
H257        H  0.33478986  0.46522984  0.64399514     0.07100
H258        H  0.34750054  0.54049006  0.67089458     0.06900
C259        C  0.68249440  0.33173770  0.52789814     0.04000
C260        C  0.66557424  0.35176644  0.52903369    -0.12200
C261        C  0.65180070  0.35896463  0.50786367     0.01500
C262        C  0.65539380  0.34622839  0.48510052    -0.10700
C263        C  0.67164400  0.32550232  0.48349990     0.04000
C264        C  0.68503855  0.31834588  0.50524019    -0.10100
H265        H  0.66264485  0.36143700  0.54666365     0.09600
H266        H  0.64531504  0.35248971  0.46869215     0.07100
H267        H  0.69743562  0.30233564  0.50464024     0.06900
C268        C  0.01431603  0.99451270  0.50714124     0.03100
C269        C  0.01564541  0.97727630  0.48694068     0.03100
C270        C  0.99844368  0.97899599  0.46676378     0.03100
C271        C  0.97773441  0.99549718  0.46865327     0.03100
C272        C  0.97555330  0.01163176  0.48975714     0.03100
C273        C  0.99480679  0.01239104  0.50807465     0.03100
C274        C  0.97405161  0.17008342  0.67573351     0.04000
C275        C  0.99616186  0.18379328  0.68044509    -0.12200
C276        C  0.01879736  0.17764557  0.66847718     0.01500
C277        C  0.01884125  0.15824936  0.65050681    -0.10700
C278        C  0.99709479  0.14461224  0.64508078     0.04000
C279        C  0.97523893  0.15001840  0.65847910    -0.10100
H280        H  0.99579400  0.19957859  0.69319746     0.09600
H281        H  0.03588766  0.15367931  0.64073083     0.07100
H282        H  0.95927800  0.13806610  0.65558145     0.06900
C283        C  0.16144883  0.02272173  0.67133446     0.04000
C284        C  0.16912422  0.00364900  0.68783480    -0.12200
C285        C  0.15655443  0.98056202  0.68819417     0.01500
C286        C  0.13668396  0.97639587  0.67159089    -0.10700
C287        C  0.12947161  0.99498094  0.65464437     0.04000
C288        C  0.14168881  0.01810618  0.65469638    -0.10100
H289        H  0.18486079  0.00667923  0.70023173     0.09600
H290        H  0.12767632  0.95825303  0.67098704     0.07100
H291        H  0.13628323  0.03226218  0.64120069     0.06900
C292        C  0.16543731  0.80398065  0.51342781     0.04000
C293        C  0.15078439  0.82589360  0.51325156    -0.12200
C294        C  0.14366889  0.83764151  0.49074924     0.01500
C295        C  0.15342057  0.82823362  0.46823142    -0.10700
C296        C  0.17062156  0.80850448  0.46815078     0.04000
C297        C  0.17575927  0.79564947  0.49053411    -0.10100
H298        H  0.14516866  0.83410006  0.53087371     0.09600
H299        H  0.14786852  0.83608643  0.45045003     0.07100
H300        H  0.18807951  0.77959309  0.49002673     0.06900
C301        C  0.80962039  0.16309421  0.53435649     0.04000
C302        C  0.82764118  0.14406033  0.53349997    -0.12200
C303        C  0.84001522  0.13874772  0.51113632     0.01500
C304        C  0.83473006  0.15271453  0.48971771    -0.10700
C305        C  0.81734667  0.17226760  0.49045090     0.04000
C306        C  0.80434605  0.17713348  0.51274072    -0.10100
H307        H  0.83195902  0.13336439  0.55019748     0.09600
H308        H  0.84411289  0.14820084  0.47234029     0.07100
H309        H  0.79082814  0.19220716  0.51347303     0.06900
C310        C  0.80226527  0.96067359  0.32329338     0.04000
C311        C  0.82337084  0.95938002  0.33881088    -0.12200
C312        C  0.83784096  0.98056731  0.34332633     0.01500
C313        C  0.83164190  0.00319957  0.33173799    -0.10700
C314        C  0.81094297  0.00509486  0.31571639     0.04000
C315        C  0.79627491  0.98355306  0.31131129    -0.10100
H316        H  0.82835552  0.94189255  0.34778784     0.09600
H317        H  0.84285675  0.01963629  0.33560396     0.07100
H318        H  0.77996973  0.98473063  0.29937781     0.06900
C319        C  0.97686923  0.83026791  0.29963046     0.04000
C320        C  0.98107607  0.84830476  0.31836435    -0.12200
C321        C  0.00463182  0.85875152  0.32212443     0.01500
C322        C  0.02468930  0.85024817  0.30785596    -0.10700
C323        C  0.02128359  0.83153688  0.28965474     0.04000
C324        C  0.99727097  0.82191167  0.28520514    -0.10100
H325        H  0.96609651  0.85398427  0.33063527     0.09600
H326        H  0.04304377  0.85803784  0.31102013     0.07100
H327        H  0.99468735  0.80755288  0.27106112     0.06900
O328        O  0.24962048  0.20294080  0.69959175    -0.79300
O329        O  0.22700419  0.30302924  0.72696542    -0.79300
O330        O  0.20164258  0.22590393  0.72287049    -0.79300
O331        O  0.30189604  0.26933417  0.72233757    -0.79300
O332        O  0.19332847  0.26500842  0.72834779    -0.79400
O333        O  0.28716843  0.24266044  0.69415596    -0.79300
O334        O  0.26352241  0.29305126  0.71473794    -0.79300
O335        O  0.22888756  0.18953971  0.73260065    -0.79300
C336        C  0.23670391  0.18607456  0.71034664     1.10400
C337        C  0.24554452  0.30792232  0.71379061     1.10300
C338        C  0.18756356  0.24413424  0.71891862     1.10400
C339        C  0.30327209  0.25902139  0.70092353     1.10300
O340        O  0.30457596  0.22860007  0.74200697    -0.79300
O341        O  0.21344004  0.24912671  0.77680962    -0.79400
O342        O  0.25031424  0.21165622  0.77730458    -0.79300
O343        O  0.28473533  0.30208301  0.75934372    -0.79300
O344        O  0.24912577  0.28868884  0.77463501    -0.79300
O345        O  0.27160265  0.19313946  0.74754399    -0.79300
O346        O  0.28842192  0.25163321  0.77164050    -0.79300
O347        O  0.19746504  0.21230411  0.77110208    -0.79300
Co348      Co  0.27564927  0.21918943  0.72099501     1.51500
Co349      Co  0.22318392  0.27374501  0.74987114     1.51700
Co350      Co  0.22601141  0.22226330  0.75052748     1.51600
Co351      Co  0.27242410  0.27210004  0.74425938     1.51500
O352        O  0.24952506  0.24555400  0.73330179    -1.41200
C353        C  0.30582799  0.23736287  0.76397513     1.10300
C354        C  0.19409398  0.23512083  0.77770978     1.10400
C355        C  0.26587828  0.19496739  0.77051253     1.10300
C356        C  0.26527630  0.30651626  0.77208767     1.10300
O357        O  0.75668599  0.19290540  0.27633611    -0.79300
O358        O  0.77831123  0.30087479  0.24235516    -0.79300
O359        O  0.79780426  0.22833866  0.20842856    -0.79300
O360        O  0.79286517  0.24133737  0.30117957    -0.79300
O361        O  0.77786764  0.26508975  0.20684237    -0.79400
O362        O  0.75800449  0.22420749  0.31416571    -0.79300
O363        O  0.80331542  0.27938716  0.26657875    -0.79300
O364        O  0.78840245  0.19909560  0.25108300    -0.79300
C365        C  0.77582708  0.18477634  0.26538213     1.10400
C366        C  0.79971246  0.29738687  0.25167457     1.10300
C367        C  0.79374175  0.24923247  0.19741435     1.10400
C368        C  0.78122745  0.22789547  0.31671406     1.10300
O369        O  0.71594459  0.25222759  0.29565879    -0.79300
O370        O  0.72463307  0.25771823  0.21608334    -0.79400
O371        O  0.74946697  0.20708756  0.22938783    -0.79300
O372        O  0.75708834  0.30405193  0.28209813    -0.79300
O373        O  0.72694959  0.29321879  0.25595580    -0.79300
O374        O  0.71638483  0.21538340  0.25342790    -0.79300
O375        O  0.74870005  0.26835086  0.31486286    -0.79300
O376        O  0.75146675  0.22754259  0.20868050    -0.79300
Co377      Co  0.73731237  0.22390258  0.28285409     1.51500
Co378      Co  0.75143018  0.27663655  0.23340866     1.51700
Co379      Co  0.77730114  0.23289900  0.23732158     1.51600
Co380      Co  0.77502749  0.27144045  0.28907012     1.51500
O381        O  0.75768671  0.24992343  0.26229103    -1.41200
C382        C  0.72534664  0.26557723  0.31329232     1.10300
C383        C  0.73244599  0.24056610  0.20171274     1.10400
C384        C  0.72712695  0.20158699  0.23701127     1.10300
C385        C  0.73585755  0.30821682  0.27215956     1.10300
O386        O  0.27887141  0.69525101  0.24005120    -0.79300
O387        O  0.19094030  0.71932123  0.27736275    -0.79300
O388        O  0.26739139  0.73067790  0.30057413    -0.79300
O389        O  0.22937287  0.72031023  0.19411831    -0.79300
O390        O  0.23965537  0.70477037  0.28439348    -0.79400
O391        O  0.26811077  0.70507864  0.18875529    -0.79300
O392        O  0.20426033  0.70796376  0.23994600    -0.79300
O393        O  0.30113180  0.72118371  0.26403744    -0.79300
C394        C  0.29801638  0.69985277  0.25356515     1.10400
C395        C  0.18715013  0.70731516  0.25708907     1.10300
C396        C  0.25477464  0.71076173  0.30180538     1.10400
C397        C  0.24566030  0.70803659  0.18082408     1.10300
O398        O  0.26309919  0.75324495  0.19630000    -0.79300
O399        O  0.22568755  0.75457427  0.29461883    -0.79400
O400        O  0.29632040  0.77010565  0.24465019    -0.79300
O401        O  0.18831902  0.74749097  0.21406607    -0.79300
O402        O  0.19951629  0.76136563  0.25158891    -0.79300
O403        O  0.30161307  0.73797278  0.21836912    -0.79300
O404        O  0.23128063  0.77292263  0.21145980    -0.79300
O405        O  0.25757722  0.77911850  0.28404461    -0.79300
Co406      Co  0.26709364  0.72373445  0.21908599     1.51500
Co407      Co  0.22191034  0.73207810  0.26579088     1.51700
Co408      Co  0.27900474  0.75053174  0.27172706     1.51600
Co409      Co  0.22074492  0.74073672  0.22658013     1.51500
O410        O  0.25249720  0.74026691  0.24717420    -1.41200
C411        C  0.24862470  0.77171864  0.19593752     1.10300
C412        C  0.23853195  0.77427472  0.29773116     1.10400
C413        C  0.30914454  0.75871447  0.22776990     1.10300
C414        C  0.18384614  0.76122474  0.23297425     1.10300
C415        C  0.06999374  0.81351493  0.24112618    -0.13500
C416        C  0.08853595  0.80294101  0.25647108     0.16900
C417        C  0.08409440  0.80088698  0.28246326     0.03200
C418        C  0.06178865  0.80970252  0.29256114    -0.12000
C419        C  0.04352072  0.82072251  0.27735436    -0.03100
C420        C  0.04755070  0.82234118  0.25133912     0.02400
C421        C  0.11304901  0.79548340  0.24588672     0.09200
N422        N  0.10233974  0.79048157  0.29903678     0.65600
H423        H  0.05886489  0.80831757  0.31258954     0.18500
N424        N  0.02985656  0.83444111  0.23536552     0.76100
H425        H  0.07341049  0.81619563  0.22137390     0.10000
C426        C  0.11544844  0.77646639  0.22760838     0.03700
C427        C  0.13900969  0.76632671  0.22260503    -0.05000
C428        C  0.16048541  0.77595739  0.23424932    -0.23400
C429        C  0.15841242  0.79767031  0.24929285     0.13000
C430        C  0.13468383  0.80665983  0.25558946    -0.12500
N431        N  0.09435086  0.76738715  0.21389362     0.64600
H432        H  0.14039145  0.75034632  0.21011265     0.12500
N433        N  0.18006006  0.81135154  0.25723309     0.61300
H434        H  0.13300867  0.82263344  0.26803592     0.08600
O435        O  0.01945836  0.82222480  0.21798075    -0.40200
O436        O  0.02773487  0.85797773  0.23599385    -0.39400
O437        O  0.11572264  0.80502021  0.31198067    -0.39400
O438        O  0.10081736  0.76775283  0.30520132    -0.37100
O439        O  0.19723876  0.81555504  0.24176335    -0.38000
O440        O  0.17997282  0.82316239  0.27775321    -0.34100
O441        O  0.08691251  0.77950681  0.19503462    -0.35500
O442        O  0.08785912  0.74483125  0.21609463    -0.39800
C443        C  0.79986388  0.06050548  0.27154269    -0.13500
C444        C  0.79889320  0.08050907  0.28872547     0.16900
C445        C  0.79979935  0.07515533  0.31453880     0.03200
C446        C  0.80262725  0.05043473  0.32274688    -0.12000
C447        C  0.80445123  0.03039587  0.30570962    -0.03100
C448        C  0.80254932  0.03555673  0.27983088     0.02400
C449        C  0.79351032  0.10651399  0.28010430     0.09200
N450        N  0.79798182  0.09477804  0.33270706     0.65600
H451        H  0.80378695  0.04688147  0.34269789     0.18500
N452        N  0.80398669  0.01581109  0.26178060     0.76100
H453        H  0.79835002  0.06426441  0.25166503     0.10000
C454        C  0.81171118  0.12259571  0.27008529     0.03700
C455        C  0.80577230  0.14785097  0.26467022    -0.05000
C456        C  0.78168635  0.15741749  0.26893909    -0.23400
C457        C  0.76310926  0.14032113  0.27743143     0.13000
C458        C  0.76939488  0.11554207  0.28310730    -0.12500
N459        N  0.83634893  0.11363045  0.26568783     0.64600
H460        H  0.82019019  0.16012070  0.25774432     0.12500
N461        N  0.73734020  0.14699670  0.27932653     0.61300
H462        H  0.75513015  0.10311580  0.29015704     0.08600
O463        O  0.78438962  0.00791090  0.25135059    -0.40200
O464        O  0.82491232  0.00883233  0.25369458    -0.39400
O465        O  0.77783468  0.09813903  0.34429661    -0.39400
O466        O  0.81743145  0.10579087  0.34009455    -0.37100
O467        O  0.72172974  0.13427931  0.26704310    -0.38000
O468        O  0.72985427  0.15885380  0.29833630    -0.34100
O469        O  0.84298299  0.10800769  0.24373835    -0.35500
O470        O  0.85217415  0.11369742  0.28321346    -0.39800
C471        C  0.82746163  0.20689695  0.42965141    -0.13500
C472        C  0.80377860  0.20518748  0.41875639     0.16900
C473        C  0.78400118  0.19499535  0.43272500     0.03200
C474        C  0.78840146  0.18588738  0.45687874    -0.12000
C475        C  0.81234581  0.18651902  0.46730668    -0.03100
C476        C  0.83189203  0.19767855  0.45374804     0.02400
C477        C  0.80074042  0.21100695  0.39186253     0.09200
N478        N  0.75957852  0.19289200  0.42221531     0.65600
H479        H  0.77333525  0.17711835  0.46700858     0.18500
N480        N  0.85647512  0.19914843  0.46399270     0.76100
H481        H  0.84282118  0.21444248  0.41900356     0.10000
C482        C  0.80598602  0.23485294  0.38195300     0.03700
C483        C  0.80217612  0.23937007  0.35634825    -0.05000
C484        C  0.79284855  0.22047855  0.34056664    -0.23400
C485        C  0.78913181  0.19631068  0.35032586     0.13000
C486        C  0.79334865  0.19173352  0.37568672    -0.12500
N487        N  0.81334428  0.25506244  0.39793121     0.64600
H488        H  0.80451696  0.25821507  0.34925116     0.12500
N489        N  0.78099107  0.17615340  0.33476744     0.61300
H490        H  0.79051943  0.17299854  0.38287570     0.08600
O491        O  0.87379698  0.18634058  0.45445163    -0.40200
O492        O  0.86164684  0.21612792  0.47964459    -0.39400
O493        O  0.74471940  0.21114090  0.42376866    -0.39400
O494        O  0.75147468  0.17169726  0.41561883    -0.37100
O495        O  0.79699847  0.16434290  0.32217518    -0.38000
O496        O  0.76046661  0.16579797  0.33943408    -0.34100
O497        O  0.83493331  0.26409458  0.39615227    -0.35500
O498        O  0.79722846  0.26628032  0.41094527    -0.39800
C499        C  0.21070013  0.81673497  0.41059627    -0.13500
C500        C  0.20381391  0.79610962  0.39589724     0.16900
C501        C  0.18750667  0.77801776  0.40616383     0.03200
C502        C  0.17745658  0.78175054  0.43020669    -0.12000
C503        C  0.18394811  0.80279869  0.44451980    -0.03100
C504        C  0.20113951  0.82008291  0.43472170     0.02400
C505        C  0.21305447  0.79468358  0.36961563     0.09200
N506        N  0.18145030  0.75557807  0.39271898     0.65600
H507        H  0.16437777  0.76831301  0.43765933     0.18500
N508        N  0.20897181  0.84129358  0.44908419     0.76100
H509        H  0.22334783  0.83058476  0.40312611     0.10000
C510        C  0.19647598  0.79422660  0.34906123     0.03700
C511        C  0.20575821  0.79114390  0.32478743    -0.05000
C512        C  0.23142253  0.78894876  0.32015267    -0.23400
C513        C  0.24808322  0.79148810  0.34045983     0.13000
C514        C  0.23882076  0.79411863  0.36496823    -0.12500
N515        N  0.17014749  0.79638157  0.35252173     0.64600
H516        H  0.19265371  0.78849768  0.30953375     0.12500
N517        N  0.27428271  0.78891919  0.33674387     0.61300
H518        H  0.25180067  0.79486664  0.38054544     0.08600
O519        O  0.20499975  0.86305939  0.44084106    -0.40200
O520        O  0.22411401  0.83825317  0.46695461    -0.39400
O521        O  0.19860255  0.74072177  0.38635387    -0.39400
O522        O  0.15909814  0.74850875  0.39111538    -0.37100
O523        O  0.28597030  0.80529145  0.32455744    -0.38000
O524        O  0.28577730  0.77025684  0.34553984    -0.34100
O525        O  0.16116209  0.81609739  0.36197809    -0.35500
O526        O  0.15573147  0.78045464  0.34272068    -0.39800
C527        C  0.17368433  0.09284375  0.67256878    -0.13500
C528        C  0.19957123  0.09361707  0.66970113     0.16900
C529        C  0.21279527  0.07112502  0.66603596     0.03200
C530        C  0.20022044  0.04812618  0.66671317    -0.12000
C531        C  0.17440563  0.04725248  0.67069664    -0.03100
C532        C  0.16104779  0.06993473  0.67322966     0.02400
C533        C  0.21274151  0.11647082  0.67799983     0.09200
N534        N  0.23915474  0.07148180  0.66261006     0.65600
H535        H  0.21062892  0.03090085  0.66419074     0.18500
N536        N  0.13502867  0.06988788  0.67875572     0.76100
H537        H  0.16352557  0.11000139  0.67635031     0.10000
C538        C  0.21723655  0.13712016  0.66231229     0.03700
C539        C  0.22715480  0.15934424  0.67251954    -0.05000
C540        C  0.23159392  0.16143858  0.69842429    -0.23400
C541        C  0.22873479  0.13991175  0.71356183     0.13000
C542        C  0.21934140  0.11786646  0.70327269    -0.12500
N543        N  0.21089009  0.13610788  0.63634516     0.64600
H544        H  0.22987094  0.17537888  0.66048758     0.12500
N545        N  0.23539174  0.14002884  0.73952051     0.61300
H546        H  0.21648224  0.10183102  0.71533282     0.08600
O547        O  0.12764962  0.06232118  0.69981569    -0.40200
O548        O  0.11981518  0.08024125  0.66396731    -0.39400
O549        O  0.25342332  0.06395138  0.67985260    -0.39400
O550        O  0.24824092  0.08119518  0.64318601    -0.37100
O551        O  0.21857098  0.13860094  0.75585749    -0.38000
O552        O  0.25771938  0.13604400  0.74575212    -0.34100
O553        O  0.18970947  0.14347347  0.62917480    -0.35500
O554        O  0.22759830  0.13179711  0.62037336    -0.39800
C555        C  0.13452474  0.21153097  0.68360815    -0.13500
C556        C  0.11396284  0.22621035  0.69017399     0.16900
C557        C  0.11816911  0.24848816  0.70389349     0.03200
C558        C  0.14253981  0.25526378  0.71124056    -0.12000
C559        C  0.16315177  0.23989133  0.70563301    -0.03100
C560        C  0.15874684  0.21799741  0.69113622     0.02400
C561        C  0.08840521  0.21652675  0.68434261     0.09200
N562        N  0.09779602  0.26409536  0.71107919     0.65600
H563        H  0.14508661  0.27186389  0.72268854     0.18500
N564        N  0.17851838  0.20140534  0.68459072     0.76100
H565        H  0.13166823  0.19425458  0.67328231     0.10000
C566        C  0.08028112  0.21239378  0.65946441     0.03700
C567        C  0.05744550  0.20036327  0.65470408    -0.05000
C568        C  0.04242618  0.19159845  0.67434023    -0.23400
C569        C  0.05075680  0.19550824  0.69923942     0.13000
C570        C  0.07328074  0.20814106  0.70397760    -0.12500
N571        N  0.09522549  0.21998092  0.63878156     0.64600
H572        H  0.05156654  0.19758905  0.63545686     0.12500
N573        N  0.03787105  0.18459895  0.71983040     0.61300
H574        H  0.07971569  0.21009494  0.72315047     0.08600
O575        O  0.17761904  0.17887306  0.69159260    -0.40200
O576        O  0.19341177  0.20761054  0.66752250    -0.39400
O577        O  0.08791280  0.26121406  0.73225524    -0.39400
O578        O  0.09277371  0.28338512  0.69842729    -0.37100
O579        O  0.04208773  0.16204795  0.72548639    -0.38000
O580        O  0.02642661  0.19850667  0.73508507    -0.34100
O581        O  0.10833802  0.20395004  0.62745733    -0.35500
O582        O  0.09159717  0.24113880  0.62895085    -0.39800
C583        C  0.02431529  0.94843730  0.40741534    -0.13500
C584        C  0.00558776  0.93110276  0.40186379     0.16900
C585        C  0.98489417  0.92916529  0.41775654     0.03200
C586        C  0.98314144  0.94460896  0.43883187    -0.12000
C587        C  0.00142573  0.96260454  0.44419627    -0.03100
C588        C  0.02233176  0.96448163  0.42821880     0.02400
C589        C  0.00799168  0.91458394  0.37979057     0.09200
N590        N  0.96591589  0.91099001  0.41314589     0.65600
H591        H  0.96752990  0.94225440  0.45133128     0.18500
N592        N  0.04134813  0.98284701  0.43242709     0.76100
H593        H  0.04023464  0.94990396  0.39513125     0.10000
C594        C  0.99354733  0.91853199  0.35808792     0.03700
C595        C  0.99325358  0.90039688  0.33914820    -0.05000
C596        C  0.00776291  0.87862035  0.34117163    -0.23400
C597        C  0.02352781  0.87551475  0.36211793     0.13000
C598        C  0.02336508  0.89340752  0.38135949    -0.12500
N599        N  0.97919009  0.94087477  0.35502046     0.64600
H600        H  0.98146511  0.90318909  0.32285596     0.12500
N601        N  0.03856748  0.85358760  0.36483355     0.61300
H602        H  0.03457817  0.89032431  0.39799841     0.08600
O603        O  0.03557142  0.00555625  0.43559259    -0.40200
O604        O  0.06394335  0.97700197  0.42961584    -0.39400
O605        O  0.96966481  0.88842050  0.41902902    -0.39400
O606        O  0.94424446  0.91807999  0.40730284    -0.37100
O607        O  0.06134750  0.85443216  0.35929743    -0.38000
O608        O  0.03034054  0.83511694  0.37689189    -0.34100
O609        O  0.95576832  0.93966848  0.35546065    -0.35500
O610        O  0.98945294  0.96014048  0.34620503    -0.39800
C611        C  0.89817477  0.96623931  0.37784786    -0.13500
C612        C  0.89603215  0.98232562  0.39855885     0.16900
C613        C  0.87428221  0.99681346  0.40140264     0.03200
C614        C  0.85534319  0.99535098  0.38347328    -0.12000
C615        C  0.85782141  0.97999604  0.36234743    -0.03100
C616        C  0.87926007  0.96499814  0.35969707     0.02400
C617        C  0.91708756  0.98486213  0.41633796     0.09200
N618        N  0.87154620  0.01388775  0.42183483     0.65600
H619        H  0.83883571  0.00685244  0.38567459     0.18500
N620        N  0.88269991  0.94965820  0.33801100     0.76100
H621        H  0.91479180  0.95501906  0.37556514     0.10000
C622        C  0.91513184  0.97719862  0.44142446     0.03700
C623        C  0.93487094  0.98151170  0.45799773    -0.05000
C624        C  0.95668807  0.99356056  0.45027160    -0.23400
C625        C  0.95874572  0.00100516  0.42496448     0.13000
C626        C  0.93900853  0.99641047  0.40827156    -0.12500
N627        N  0.89370879  0.96401910  0.45005281     0.64600
H628        H  0.93364041  0.97426434  0.47676897     0.12500
N629        N  0.98064144  0.01303926  0.41582484     0.61300
H630        H  0.94052928  0.00246409  0.38897902     0.08600
O631        O  0.87925504  0.92633606  0.33936780    -0.40200
O632        O  0.89305334  0.95870806  0.31892138    -0.39400
O633        O  0.88568791  0.03266264  0.42349033    -0.39400
O634        O  0.85237154  0.01275507  0.43531595    -0.37100
O635        O  0.99080049  0.00505246  0.39607376    -0.38000
O636        O  0.98675170  0.03422717  0.42432519    -0.34100
O637        O  0.89135738  0.94105838  0.44491292    -0.35500
O638        O  0.88017947  0.97369937  0.46675588    -0.39800
C639        C  0.91503818  0.04006247  0.51414076    -0.13500
C640        C  0.91182445  0.06012951  0.49767607     0.16900
C641        C  0.92882504  0.06364334  0.47807999     0.03200
C642        C  0.94932403  0.04763252  0.47578717    -0.12000
C643        C  0.95300466  0.02774863  0.49254918    -0.03100
C644        C  0.93522216  0.02359972  0.51157052     0.02400
C645        C  0.89237180  0.07894821  0.50278367     0.09200
N646        N  0.92576708  0.08383649  0.46081685     0.65600
H647        H  0.96267972  0.05103208  0.46114644     0.18500
N648        N  0.93721108  0.00286275  0.52839246     0.76100
H649        H  0.90188136  0.03730561  0.52919368     0.10000
C650        C  0.86834930  0.07714798  0.49222865     0.03700
C651        C  0.85141006  0.09677735  0.49561565    -0.05000
C652        C  0.85793751  0.11801067  0.50952913    -0.23400
C653        C  0.88176846  0.11969895  0.52036575     0.13000
C654        C  0.89880596  0.10014179  0.51697434    -0.12500
N655        N  0.86107447  0.05601081  0.47743721     0.64600
H656        H  0.83303358  0.09555103  0.48724327     0.12500
N657        N  0.88935038  0.14178429  0.53347167     0.61300
H658        H  0.91740415  0.10182428  0.52474329     0.08600
O659        O  0.93833014  0.00707165  0.55162893    -0.40200
O660        O  0.93047464  0.98145247  0.52103693    -0.39400
O661        O  0.93858385  0.10346668  0.46324799    -0.39400
O662        O  0.90983968  0.08229984  0.44344450    -0.37100
O663        O  0.89746881  0.16029185  0.52138329    -0.38000
O664        O  0.89116414  0.14154317  0.55703440    -0.34100
O665        O  0.86163897  0.03436812  0.48685874    -0.35500
O666        O  0.84958551  0.05949106  0.45706748    -0.39800
C667        C  0.99931020  0.07438545  0.54383692    -0.13500
C668        C  0.99693800  0.06641056  0.56875311     0.16900
C669        C  0.99274960  0.04082041  0.57351657     0.03200
C670        C  0.99172469  0.02377828  0.55351723    -0.12000
C671        C  0.99465353  0.03158984  0.52860189    -0.03100
C672        C  0.99835896  0.05734533  0.52374305     0.02400
C673        C  0.99725034  0.08554910  0.58910467     0.09200
N674        N  0.98800812  0.03204827  0.59832268     0.65600
H675        H  0.98806285  0.00426089  0.55743984     0.18500
N676        N  0.00168292  0.06652135  0.49873083     0.76100
H677        H  0.00235515  0.09406464  0.54003254     0.10000
C678        C  0.01550418  0.08605035  0.60824803     0.03700
C679        C  0.01517366  0.10533621  0.62631086    -0.05000
C680        C  0.99712508  0.12447738  0.62550819    -0.23400
C681        C  0.97901374  0.12385885  0.60616704     0.13000
C682        C  0.97911439  0.10437996  0.58853897    -0.12500
N683        N  0.03501939  0.06779545  0.60903641     0.64600
H684        H  0.02922648  0.10547425  0.64093045     0.12500
N685        N  0.96120812  0.14358858  0.60317923     0.61300
H686        H  0.96522952  0.10432605  0.57373688     0.08600
O687        O  0.01657861  0.05576869  0.48396405    -0.40200
O688        O  0.99168078  0.08691686  0.49220450    -0.39400
O689        O  0.96877988  0.03941567  0.60967658    -0.39400
O690        O  0.00016694  0.01367928  0.60684620    -0.37100
O691        O  0.96867127  0.16546456  0.59850676    -0.38000
O692        O  0.93857696  0.13826618  0.59971347    -0.34100
O693        O  0.05292298  0.06944217  0.59392949    -0.35500
O694        O  0.03691702  0.05341601  0.62766342    -0.39800
C695        C  0.06603466  0.00571740  0.55512624    -0.13500
C696        C  0.06124024  0.98661900  0.57237730     0.16900
C697        C  0.04102287  0.97046213  0.56827709     0.03200
C698        C  0.02664284  0.97292458  0.54650116    -0.12000
C699        C  0.03159794  0.99180102  0.52894378    -0.03100
C700        C  0.05133239  0.00867012  0.53360995     0.02400
C701        C  0.07756271  0.98448300  0.59462524     0.09200
N702        N  0.03469671  0.95173632  0.58617981     0.65600
H703        H  0.01099669  0.96051586  0.54364957     0.18500
N704        N  0.05621139  0.02936395  0.51737843     0.76100
H705        H  0.08125785  0.01858448  0.55854657     0.10000
C706        C  0.10271447  0.97764854  0.59179694     0.03700
C707        C  0.11926009  0.98040342  0.61187960    -0.05000
C708        C  0.11096538  0.98955357  0.63498307    -0.23400
C709        C  0.08555920  0.99490494  0.63837889     0.13000
C710        C  0.06897666  0.99243797  0.61815187    -0.12500
N711        N  0.11167080  0.96817918  0.56845865     0.64600
H712        H  0.13876420  0.97591748  0.60929968     0.12500
N713        N  0.07664677  0.00365778  0.66200914     0.61300
H714        H  0.04966042  0.99775793  0.62048893     0.08600
O715        O  0.05713800  0.05120596  0.52644165    -0.40200
O716        O  0.06499057  0.02547749  0.49585163    -0.39400
O717        O  0.01523583  0.95422231  0.59909486    -0.39400
O718        O  0.04616618  0.93109547  0.58621269    -0.37100
O719        O  0.06967046  0.98809986  0.67825088    -0.38000
O720        O  0.07911342  0.02641242  0.66794839    -0.34100
O721        O  0.12450774  0.98199272  0.55443365    -0.35500
O722        O  0.10968022  0.94513793  0.56354929    -0.39800
C723        C  0.10763593  0.89727252  0.47342393    -0.13500
C724        C  0.08965545  0.89817374  0.49228111     0.16900
C725        C  0.08961512  0.87942337  0.51074275     0.03200
C726        C  0.10677126  0.85970061  0.50944315    -0.12000
C727        C  0.12551959  0.85907385  0.49102216    -0.03100
C728        C  0.12605907  0.87875224  0.47320323     0.02400
C729        C  0.07092309  0.91864381  0.49201212     0.09200
N730        N  0.07319730  0.88092012  0.53168909     0.65600
H731        H  0.10544021  0.84498799  0.52326395     0.18500
N732        N  0.14611364  0.88159847  0.45599529     0.76100
H733        H  0.10795597  0.91168431  0.45916893     0.10000
C734        C  0.07806176  0.94397377  0.48968989     0.03700
C735        C  0.05973691  0.96237751  0.48691253    -0.05000
C736        C  0.03436629  0.95656744  0.48785162    -0.23400
C737        C  0.02721508  0.93127739  0.49080444     0.13000
C738        C  0.04554019  0.91261056  0.49211225    -0.12500
N739        N  0.10373942  0.95125023  0.49062130     0.64600
H740        H  0.06548630  0.98186592  0.48446051     0.12500
N741        N  0.00159534  0.92428740  0.49315334     0.61300
H742        H  0.03987718  0.89313113  0.49349617     0.08600
O743        O  0.14169771  0.88118476  0.43275176    -0.40200
O744        O  0.16637205  0.89067860  0.46379543    -0.39400
O745        O  0.05572021  0.86534932  0.53381099    -0.39400
O746        O  0.07879162  0.89481848  0.55002129    -0.37100
O747        O  0.98842168  0.93393972  0.51015272    -0.38000
O748        O  0.99338936  0.90556159  0.48124342    -0.34100
O749        O  0.11210973  0.96677588  0.47501651    -0.35500
O750        O  0.11781872  0.94320739  0.50780598    -0.39800
C751        C  0.71025276  0.30299126  0.37183527    -0.13500
C752        C  0.69223887  0.28806005  0.38317758     0.16900
C753        C  0.68152424  0.26835514  0.36901053     0.03200
C754        C  0.69077882  0.26255924  0.34491805    -0.12000
C755        C  0.71077802  0.27602358  0.33471456    -0.03100
C756        C  0.71998637  0.29702841  0.34837183     0.02400
C757        C  0.68608519  0.29344197  0.41000123     0.09200
N758        N  0.66237413  0.25311349  0.37935354     0.65600
H759        H  0.68351823  0.24637998  0.33503291     0.18500
N760        N  0.74043617  0.31175958  0.33968820     0.76100
H761        H  0.71792593  0.31885115  0.38195241     0.10000
C762        C  0.70521092  0.29576347  0.42818189     0.03700
C763        C  0.70001133  0.30563421  0.45195717    -0.05000
C764        C  0.67570790  0.31241054  0.45885342    -0.23400
C765        C  0.65621105  0.30806559  0.44131371     0.13000
C766        C  0.66165632  0.29936623  0.41701260    -0.12500
N767        N  0.73016892  0.28824357  0.42270155     0.64600
H768        H  0.71533196  0.30848681  0.46489673     0.12500
N769        N  0.63071752  0.31167081  0.44802776     0.61300
H770        H  0.64671295  0.29764442  0.40345613     0.08600
O771        O  0.76230890  0.30493672  0.34509386    -0.40200
O772        O  0.73668028  0.33450363  0.33466848    -0.39400
O773        O  0.63993578  0.25772315  0.37400372    -0.39400
O774        O  0.66798775  0.23247307  0.38935887    -0.37100
O775        O  0.62087216  0.29732374  0.46386630    -0.38000
O776        O  0.61709602  0.32612293  0.43524447    -0.34100
O777        O  0.73567962  0.26526612  0.42257919    -0.35500
O778        O  0.74733940  0.30432272  0.42257558    -0.39800
C779        C  0.24137329  0.37767572  0.69883430    -0.13500
C780        C  0.26296050  0.38104862  0.68454435     0.16900
C781        C  0.27590777  0.35960886  0.67608545     0.03200
C782        C  0.26827323  0.33556814  0.68360553    -0.12000
C783        C  0.24793916  0.33220898  0.69982361    -0.03100
C784        C  0.23358632  0.35362038  0.70618752     0.02400
C785        C  0.27319574  0.40684384  0.68091797     0.09200
N786        N  0.29823514  0.36202295  0.66184261     0.65600
H787        H  0.27953219  0.31959118  0.67823688     0.18500
N788        N  0.21188609  0.35153117  0.72137630     0.76100
H789        H  0.23102470  0.39392453  0.70519090     0.10000
C790        C  0.27275063  0.41904261  0.65748544     0.03700
C791        C  0.28451716  0.44244201  0.65458460    -0.05000
C792        C  0.29644124  0.45429224  0.67489638    -0.23400
C793        C  0.29644699  0.44226105  0.69840475     0.13000
C794        C  0.28479534  0.41889877  0.70125894    -0.12500
N795        N  0.25963051  0.40833455  0.63675193     0.64600
H796        H  0.28403780  0.45156542  0.63649247     0.12500
N797        N  0.30937778  0.45301231  0.71926462     0.61300
H798        H  0.28549306  0.40971700  0.71932421     0.08600
O799        O  0.21349321  0.35489106  0.74472170    -0.40200
O800        O  0.19072140  0.35063424  0.71109173    -0.39400
O801        O  0.31786864  0.36967913  0.67238934    -0.39400
O802        O  0.29941850  0.35258316  0.64018311    -0.37100
O803        O  0.29735416  0.46212889  0.73738245    -0.38000
O804        O  0.33284738  0.45378720  0.71941041    -0.34100
O805        O  0.23654743  0.41216177  0.63452272    -0.35500
O806        O  0.27159516  0.39933798  0.61853843    -0.39800
C807        C  0.34987717  0.65921756  0.27752825    -0.13500
C808        C  0.37002344  0.67094232  0.26557451     0.16900
C809        C  0.36505060  0.68741135  0.24559989     0.03200
C810        C  0.34044504  0.69315340  0.23922460    -0.12000
C811        C  0.32036368  0.68366087  0.25293945    -0.03100
C812        C  0.32508837  0.66542069  0.27138489     0.02400
C813        C  0.39595618  0.66630096  0.27448606     0.09200
N814        N  0.38463887  0.70031212  0.23305855     0.65600
H815        H  0.33719852  0.70733940  0.22513949     0.18500
N816        N  0.30503591  0.65316498  0.28392185     0.76100
H817        H  0.35347490  0.64550289  0.29201420     0.10000
C818        C  0.40244555  0.66990718  0.29987912     0.03700
C819        C  0.42670997  0.66499313  0.30803276    -0.05000
C820        C  0.44511916  0.65705075  0.29124569    -0.23400
C821        C  0.43899316  0.65411818  0.26572128     0.13000
C822        C  0.41447476  0.65848786  0.25757868    -0.12500
N823        N  0.38484059  0.67956592  0.31743813     0.64600
H824        H  0.43134116  0.66777789  0.32762962     0.12500
N825        N  0.45718730  0.64576394  0.24811985     0.61300
H826        H  0.40981411  0.65550951  0.23803296     0.08600
O827        O  0.28785367  0.64322763  0.27115275    -0.40200
O828        O  0.30671913  0.64828409  0.30698351    -0.39400
O829        O  0.38550804  0.69990047  0.20945475    -0.39400
O830        O  0.39829333  0.71538177  0.24509415    -0.37100
O831        O  0.46757710  0.66135154  0.23388889    -0.38000
O832        O  0.46042735  0.62262047  0.24452044    -0.34100
O833        O  0.37715775  0.66581375  0.33493624    -0.35500
O834        O  0.38035333  0.70276927  0.31800717    -0.39800
C835        C  0.69445079  0.42384260  0.29315529    -0.13500
C836        C  0.70118314  0.40379699  0.30883013     0.16900
C837        C  0.70446610  0.40841081  0.33468061     0.03200
C838        C  0.70012361  0.43245820  0.34442332    -0.12000
C839        C  0.69331839  0.45245987  0.32878270    -0.03100
C840        C  0.69044434  0.44800284  0.30291373     0.02400
C841        C  0.70747742  0.37908594  0.29743597     0.09200
N842        N  0.71401319  0.38944740  0.35095857     0.65600
H843        H  0.70253313  0.43569449  0.36434189     0.18500
N844        N  0.68255735  0.46758900  0.28651241     0.76100
H845        H  0.69224342  0.42066393  0.27321201     0.10000
C846        C  0.69346566  0.35704986  0.30152857     0.03700
C847        C  0.70165240  0.33395141  0.29152411    -0.05000
C848        C  0.72372075  0.33257729  0.27760246    -0.23400
C849        C  0.73675949  0.35483139  0.27254120     0.13000
C850        C  0.72872172  0.37767530  0.28250535    -0.12500
N851        N  0.67119654  0.35775633  0.31601552     0.64600
H852        H  0.69152628  0.31697155  0.29575366     0.12500
N853        N  0.75878098  0.35434148  0.25775839     0.61300
H854        H  0.73947079  0.39443670  0.27893942     0.08600
O855        O  0.65989150  0.47375677  0.28561012    -0.40200
O856        O  0.69749774  0.47633049  0.27064047    -0.39400
O857        O  0.73697345  0.38449407  0.35051300    -0.39400
O858        O  0.70126708  0.38247104  0.36944637    -0.37100
O859        O  0.77898653  0.36206955  0.26696400    -0.38000
O860        O  0.75756440  0.34850284  0.23486798    -0.34100
O861        O  0.65085259  0.36318558  0.30544288    -0.35500
O862        O  0.67096157  0.34784731  0.33743553    -0.39800
C863        C  0.27450933  0.65868163  0.41282333    -0.13500
C864        C  0.26991467  0.68286816  0.40393376     0.16900
C865        C  0.27308987  0.70346610  0.42025729     0.03200
C866        C  0.28231956  0.69968031  0.44462937    -0.12000
C867        C  0.28854813  0.67555065  0.45302033    -0.03100
C868        C  0.28344581  0.65480444  0.43721334     0.02400
C869        C  0.26530630  0.68641783  0.37677426     0.09200
N870        N  0.26852274  0.72843387  0.41180522     0.65600
H871        H  0.28614805  0.71579026  0.45641885     0.18500
N872        N  0.28761339  0.62969540  0.44557518     0.76100
H873        H  0.27184364  0.64275816  0.40046252     0.10000
C874        C  0.28558779  0.68848588  0.36038455     0.03700
C875        C  0.28149852  0.69383192  0.33511699    -0.05000
C876        C  0.25732027  0.69660148  0.32542117    -0.23400
C877        C  0.23687237  0.69272026  0.34144908     0.13000
C878        C  0.24099564  0.68791877  0.36708516    -0.12500
N879        N  0.31055294  0.68627883  0.36946003     0.64600
H880        H  0.29742053  0.69723465  0.32320817     0.12500
N881        N  0.21196558  0.69540278  0.33236883     0.61300
H882        H  0.22525772  0.68596716  0.37952733     0.08600
O883        O  0.30133927  0.61514511  0.43305094    -0.40200
O884        O  0.27459779  0.62097435  0.46309938    -0.39400
O885        O  0.24896808  0.73967200  0.41851308    -0.39400
O886        O  0.28584359  0.74066792  0.40174428    -0.37100
O887        O  0.19984926  0.71514008  0.33698100    -0.38000
O888        O  0.20103005  0.67683239  0.32269390    -0.34100
O889        O  0.32092881  0.66506564  0.37003530    -0.35500
O890        O  0.32327059  0.70571225  0.37354209    -0.39800
C891        C  0.36839057  0.25108261  0.67684558    -0.13500
C892        C  0.37712502  0.27579617  0.67927631     0.16900
C893        C  0.35982951  0.29523182  0.68362804     0.03200
C894        C  0.33473956  0.28945400  0.68754442    -0.12000
C895        C  0.32613745  0.26462838  0.68667788    -0.03100
C896        C  0.34303139  0.24542106  0.68024625     0.02400
C897        C  0.40421076  0.28127073  0.67716076     0.09200
N898        N  0.36752736  0.32089724  0.68446123     0.65600
H899        H  0.32202966  0.30439261  0.69267083     0.18500
N900        N  0.33505674  0.21991867  0.67911389     0.76100
H901        H  0.38142798  0.23605784  0.67300895     0.10000
C902        C  0.41834058  0.29025209  0.69771595     0.03700
C903        C  0.44289889  0.29851957  0.69410092    -0.05000
C904        C  0.45385095  0.29776143  0.67028826    -0.23400
C905        C  0.44010328  0.28741405  0.65010568     0.13000
C906        C  0.41552582  0.27943447  0.65367209    -0.12500
N907        N  0.40793986  0.29123110  0.72230247     0.64600
H908        H  0.45310614  0.30644955  0.70976786     0.12500
N909        N  0.45080386  0.28523041  0.62573259     0.61300
H910        H  0.40496615  0.27237017  0.63782401     0.08600
O911        O  0.34158311  0.20468067  0.69593100    -0.40200
O912        O  0.32127060  0.21263270  0.66134995    -0.39400
O913        O  0.37788297  0.33051890  0.66564782    -0.39400
O914        O  0.36082601  0.33482508  0.70236354    -0.37100
O915        O  0.46760978  0.26916499  0.62182728    -0.38000
O916        O  0.44099613  0.29652428  0.60744068    -0.34100
O917        O  0.40632947  0.27136512  0.73491766    -0.35500
O918        O  0.40508158  0.31210223  0.73308300    -0.39800
C919        C  0.42138859  0.56164867  0.49823674    -0.13500
C920        C  0.42641793  0.58742584  0.49647524     0.16900
C921        C  0.45147833  0.59536693  0.49880940     0.03200
C922        C  0.47015071  0.57779393  0.50323393    -0.12000
C923        C  0.46513729  0.55221690  0.50574520    -0.03100
C924        C  0.44042795  0.54402039  0.50199538     0.02400
C925        C  0.40526262  0.60563675  0.49465587     0.09200
N926        N  0.45822068  0.62124659  0.49841913     0.65600
H927        H  0.48927934  0.58480762  0.50632003     0.18500
N928        N  0.43437007  0.51798661  0.50208719     0.76100
H929        H  0.40227039  0.55498973  0.49723777     0.10000
C930        C  0.38459578  0.60159128  0.47860974     0.03700
C931        C  0.36415587  0.61794744  0.47938474    -0.05000
C932        C  0.36423696  0.63946787  0.49467803    -0.23400
C933        C  0.38553409  0.64420328  0.50964224     0.13000
C934        C  0.40489989  0.62667333  0.51051398    -0.12500
N935        N  0.38403498  0.58110286  0.46126860     0.64600
H936        H  0.34806370  0.61362457  0.46786592     0.12500
N937        N  0.38843042  0.66722294  0.52316638     0.61300
H938        H  0.41989467  0.62981355  0.52375015     0.08600
O939        O  0.44298788  0.50402928  0.48510148    -0.40200
O940        O  0.41628052  0.51038873  0.51497752    -0.39400
O941        O  0.46762400  0.63111565  0.51778580    -0.39400
O942        O  0.45996423  0.63242893  0.47776965    -0.37100
O943        O  0.38918004  0.68765320  0.51137567    -0.38000
O944        O  0.39405997  0.66688519  0.54614422    -0.34100
O945        O  0.36684367  0.56509109  0.46246755    -0.35500
O946        O  0.39820370  0.58122597  0.44250478    -0.39800
C947        C  0.42952797  0.53783939  0.57209654    -0.13500
C948        C  0.43189934  0.52305901  0.59370141     0.16900
C949        C  0.45591733  0.51399428  0.59979142     0.03200
C950        C  0.47502740  0.51577013  0.58194432    -0.12000
C951        C  0.47068698  0.52656434  0.55819399    -0.03100
C952        C  0.45066569  0.54380154  0.55805522     0.02400
C953        C  0.40966941  0.51807393  0.60974555     0.09200
N954        N  0.46147535  0.50411584  0.62410109     0.65600
H955        H  0.49332732  0.50951299  0.58720463     0.18500
N956        N  0.45563611  0.57005602  0.55473543     0.76100
H957        H  0.41228050  0.54745896  0.56803684     0.10000
C958        C  0.39197366  0.53691638  0.61513789     0.03700
C959        C  0.37014711  0.53086790  0.62787097    -0.05000
C960        C  0.36613749  0.50686868  0.63800333    -0.23400
C961        C  0.38403379  0.48799782  0.63282540     0.13000
C962        C  0.40513632  0.49364462  0.61839108    -0.12500
N963        N  0.39650495  0.56267431  0.60934415     0.64600
H964        H  0.35661291  0.54565269  0.63066887     0.12500
N965        N  0.38169128  0.46322452  0.64253353     0.61300
H966        H  0.41823268  0.47878909  0.61412286     0.08600
O967        O  0.43793128  0.58566330  0.55442451    -0.40200
O968        O  0.47759854  0.57812840  0.55720157    -0.39400
O969        O  0.47504016  0.48490691  0.62621755    -0.39400
O970        O  0.45643137  0.51688564  0.64336607    -0.37100
O971        O  0.37660874  0.44542536  0.62777182    -0.38000
O972        O  0.39022880  0.45837557  0.66403291    -0.34100
O973        O  0.38055471  0.57506948  0.59711929    -0.35500
O974        O  0.41447744  0.57394413  0.61964112    -0.39800
C975        C  0.51675063  0.57957716  0.44183914    -0.13500
C976        C  0.50025718  0.57102963  0.42338239     0.16900
C977        C  0.48567839  0.54977338  0.42794592     0.03200
C978        C  0.48734102  0.53770288  0.45111707    -0.12000
C979        C  0.50378162  0.54619079  0.46986405    -0.03100
C980        C  0.51881704  0.56750049  0.46514014     0.02400
C981        C  0.49809251  0.58506036  0.39966615     0.09200
N982        N  0.46960166  0.53994400  0.40893654     0.65600
H983        H  0.47620287  0.52117304  0.45430399     0.18500
N984        N  0.53576094  0.57751454  0.48360449     0.76100
H985        H  0.52775639  0.59611777  0.43812114     0.10000
C986        C  0.48030880  0.60423124  0.39680363     0.03700
C987        C  0.47956273  0.61822272  0.37477111    -0.05000
C988        C  0.49633038  0.61352502  0.35528127    -0.23400
C989        C  0.51421071  0.59429865  0.35811391     0.13000
C990        C  0.51499361  0.58030798  0.38030959    -0.12500
N991        N  0.46366086  0.61060074  0.41656929     0.64600
H992        H  0.46606782  0.63325942  0.37309696     0.12500
N993        N  0.53118944  0.58835736  0.33843776     0.61300
H994        H  0.52877725  0.56564938  0.38246865     0.08600
O995        O  0.55356479  0.59133196  0.47692729    -0.40200
O996        O  0.53202393  0.57442865  0.50670243    -0.39400
O997        O  0.47853285  0.52726862  0.39111576    -0.39400
O998        O  0.44644218  0.54364449  0.41006898    -0.37100
O999        O  0.55422683  0.59160521  0.34171638    -0.38000
O1000       O  0.52365856  0.57613775  0.31962034    -0.34100
O1001       O  0.46578888  0.63167900  0.42707416    -0.35500
O1002       O  0.44355465  0.59868935  0.41868973    -0.39800
C1003       C  0.58612362  0.51527629  0.46175061    -0.13500
C1004       C  0.57887811  0.50504223  0.43872336     0.16900
C1005       C  0.55408715  0.49750368  0.43511243     0.03200
C1006       C  0.53686823  0.50092667  0.45440474    -0.12000
C1007       C  0.54396444  0.51117071  0.47765211    -0.03100
C1008       C  0.56915190  0.51829081  0.48131412     0.02400
C1009       C  0.59799987  0.50204083  0.41919559     0.09200
N1010       N  0.54645425  0.48517345  0.41255121     0.65600
H1011       H  0.51781258  0.49515270  0.45134851     0.18500
N1012       N  0.57824762  0.52839872  0.50447657     0.76100
H1013       H  0.60527993  0.52100798  0.46456087     0.10000
C1014       C  0.59856457  0.51753676  0.39788476     0.03700
C1015       C  0.61900409  0.51646591  0.38173916    -0.05000
C1016       C  0.63889647  0.50006237  0.38647647    -0.23400
C1017       C  0.63783573  0.48394286  0.40732988     0.13000
C1018       C  0.61749466  0.48511663  0.42349522    -0.12500
N1019       N  0.57904586  0.53506820  0.39291116     0.64600
H1020       H  0.61948975  0.52868009  0.36557452     0.12500
N1021       N  0.65790420  0.46730834  0.41312989     0.61300
H1022       H  0.61726374  0.47330307  0.43997336     0.08600
O1023       O  0.59636893  0.51759955  0.51502068    -0.40200
O1024       O  0.57506316  0.55134972  0.50892001    -0.39400
O1025       O  0.55422769  0.46330961  0.40800776    -0.39400
O1026       O  0.52860846  0.49394291  0.39985592    -0.37100
O1027       O  0.67610122  0.47521038  0.42588123    -0.38000
O1028       O  0.65516457  0.44404829  0.40993884    -0.34100
O1029       O  0.57987420  0.55655942  0.40277683    -0.35500
O1030       O  0.56438886  0.53114576  0.37479752    -0.39800
C1031       C  0.55270190  0.43235481  0.50566613    -0.13500
C1032       C  0.57562640  0.43532435  0.51788781     0.16900
C1033       C  0.58035645  0.45761650  0.53117652     0.03200
C1034       C  0.56264082  0.47693328  0.53114447    -0.12000
C1035       C  0.54024908  0.47468791  0.51770812    -0.03100
C1036       C  0.53500632  0.45175417  0.50549393     0.02400
C1037       C  0.59492234  0.41557949  0.51553350     0.09200
N1038       N  0.60311810  0.46085428  0.54472957     0.65600
H1039       H  0.56634496  0.49387241  0.54169040     0.18500
N1040       N  0.51170447  0.44756980  0.49325497     0.76100
H1041       H  0.54873043  0.41505581  0.49576869     0.10000
C1042       C  0.59415018  0.39350481  0.52985333     0.03700
C1043       C  0.61290285  0.37539156  0.52718688    -0.05000
C1044       C  0.63242500  0.37874082  0.51011489    -0.23400
C1045       C  0.63289408  0.40067264  0.49545435     0.13000
C1046       C  0.61425367  0.41887712  0.49832039    -0.12500
N1047       N  0.57471686  0.38947836  0.54750778     0.64600
H1048       H  0.61216364  0.35854282  0.53842555     0.12500
N1049       N  0.65259488  0.40509927  0.47818281     0.61300
H1050       H  0.61492246  0.43576818  0.48713225     0.08600
O1051       O  0.49659321  0.43239972  0.50291079    -0.40200
O1052       O  0.50962671  0.45255016  0.47027574    -0.39400
O1053       O  0.62236530  0.46817628  0.53350202    -0.39400
O1054       O  0.60335622  0.45892779  0.56827325    -0.37100
O1055       O  0.67217038  0.41581507  0.48567661    -0.38000
O1056       O  0.64853245  0.40291821  0.45498529    -0.34100
O1057       O  0.55719437  0.37468203  0.54214995    -0.35500
O1058       O  0.57761726  0.39671055  0.56983657    -0.39800
C1059       C  0.47697383  0.44272347  0.56996298    -0.13500
C1060       C  0.49649332  0.43683740  0.58638181     0.16900
C1061       C  0.51755895  0.45244529  0.58724351     0.03200
C1062       C  0.51937254  0.47269798  0.57086841    -0.12000
C1063       C  0.50038189  0.47799913  0.55347590    -0.03100
C1064       C  0.47849221  0.46336629  0.55392204     0.02400
C1065       C  0.49585014  0.41316255  0.60074085     0.09200
N1066       N  0.53701764  0.44822570  0.60506993     0.65600
H1067       H  0.53536035  0.48488886  0.57229670     0.18500
N1068       N  0.45758965  0.46920770  0.53838445     0.76100
H1069       H  0.46082748  0.43068844  0.56883792     0.10000
C1070       C  0.47745957  0.40823167  0.61882512     0.03700
C1071       C  0.47848751  0.38591626  0.63251190    -0.05000
C1072       C  0.49719136  0.36803270  0.62811966    -0.23400
C1073       C  0.51491263  0.37252863  0.60927884     0.13000
C1074       C  0.51424794  0.39508625  0.59602125    -0.12500
N1075       N  0.45819541  0.42596401  0.62420473     0.64600
H1076       H  0.46480235  0.38272936  0.64699507     0.12500
N1077       N  0.53302944  0.35399030  0.60274012     0.61300
H1078       H  0.52790120  0.39836620  0.58155232     0.08600
O1079       O  0.43637205  0.47176666  0.54812232    -0.40200
O1080       O  0.45938134  0.46710106  0.51495527    -0.39400
O1081       O  0.55787594  0.44023077  0.59778725    -0.39400
O1082       O  0.53480920  0.45662155  0.62706456    -0.37100
O1083       O  0.52615648  0.33400164  0.59212562    -0.38000
O1084       O  0.55588114  0.35927404  0.60369310    -0.34100
O1085       O  0.43893350  0.42640012  0.61060859    -0.35500
O1086       O  0.45750001  0.43613754  0.64555294    -0.39800
C1087       C  0.82294921  0.24368231  0.13218468    -0.13500
C1088       C  0.81882668  0.26792589  0.12285675     0.16900
C1089       C  0.80836689  0.28617960  0.13875695     0.03200
C1090       C  0.80102007  0.27966837  0.16297279    -0.12000
C1091       C  0.80465213  0.25532385  0.17245390    -0.03100
C1092       C  0.81613316  0.23729805  0.15678862     0.02400
C1093       C  0.82406889  0.27396533  0.09617976     0.09200
N1094       N  0.80519419  0.31152114  0.13053897     0.65600
H1095       H  0.79215600  0.29389419  0.17431447     0.18500
N1096       N  0.81976314  0.21211569  0.16496785     0.76100
H1097       H  0.83081672  0.22944124  0.12007493     0.10000
C1098       C  0.84843611  0.27358083  0.08668526     0.03700
C1099       C  0.85316196  0.28289443  0.06264130    -0.05000
C1100       C  0.83393336  0.29282862  0.04761755    -0.23400
C1101       C  0.80925445  0.29171318  0.05659483     0.13000
C1102       C  0.80458713  0.28232640  0.08064445    -0.12500
N1103       N  0.86881462  0.26550883  0.10193422     0.64600
H1104       H  0.87218894  0.28322711  0.05602434     0.12500
N1105       N  0.78894129  0.30170477  0.04241156     0.61300
H1106       H  0.78572377  0.28267046  0.08770384     0.08600
O1107       O  0.84076279  0.20540083  0.17323821    -0.40200
O1108       O  0.80356245  0.19577081  0.15994364    -0.39400
O1109       O  0.78419313  0.32202680  0.13205851    -0.39400
O1110       O  0.82366224  0.32385492  0.12290494    -0.37100
O1111       O  0.78390919  0.32475374  0.04391490    -0.38000
O1112       O  0.77339245  0.28699463  0.03247772    -0.34100
O1113       O  0.87804307  0.24399719  0.09870099    -0.35500
O1114       O  0.87966641  0.28097394  0.11614895    -0.39800
C1115       C  0.07257005  0.26384394  0.79274795    -0.13500
C1116       C  0.09471556  0.27564192  0.80055371     0.16900
C1117       C  0.09259241  0.29926983  0.81252974     0.03200
C1118       C  0.06923538  0.31067558  0.81538724    -0.12000
C1119       C  0.04684227  0.29848000  0.80884253    -0.03100
C1120       C  0.04892480  0.27450566  0.79737802     0.02400
C1121       C  0.11986588  0.26436312  0.79454674     0.09200
N1122       N  0.11388974  0.31167604  0.82293631     0.65600
H1123       H  0.06885773  0.32930877  0.82340555     0.18500
N1124       N  0.02742619  0.26006813  0.79117386     0.76100
H1125       H  0.07348058  0.24605089  0.78302606     0.10000
C1126       C  0.12564611  0.23860750  0.79759813     0.03700
C1127       C  0.14959549  0.22942107  0.79160650    -0.05000
C1128       C  0.16881733  0.24555286  0.78406211    -0.23400
C1129       C  0.16301369  0.27139446  0.78148444     0.13000
C1130       C  0.13865894  0.28000936  0.78537843    -0.12500
N1131       N  0.10787663  0.22165987  0.80782180     0.64600
H1132       H  0.15343241  0.20962190  0.79385161     0.12500
N1133       N  0.18166390  0.28961861  0.77606642     0.61300
H1134       H  0.13467571  0.29957244  0.78189287     0.08600
O1135       O  0.02291129  0.25481667  0.76853939    -0.40200
O1136       O  0.01638751  0.24820485  0.80821375    -0.39400
O1137       O  0.11876148  0.33391194  0.81669658    -0.39400
O1138       O  0.12553773  0.30185342  0.84099533    -0.37100
O1139       O  0.19756084  0.29462070  0.79275377    -0.38000
O1140       O  0.17791252  0.30531388  0.75881115    -0.34100
O1141       O  0.10012926  0.20350891  0.79477436    -0.35500
O1142       O  0.10329559  0.22228373  0.83097262    -0.39800
C1143       C  0.86500666  0.39966583  0.22192248    -0.13500
C1144       C  0.84098010  0.39190955  0.22834906     0.16900
C1145       C  0.82102820  0.40889084  0.22547233     0.03200
C1146       C  0.82496538  0.43239091  0.21467052    -0.12000
C1147       C  0.84868639  0.43971357  0.20676874    -0.03100
C1148       C  0.86909240  0.42352908  0.21163850     0.02400
C1149       C  0.83629477  0.36525257  0.23476077     0.09200
N1150       N  0.79631435  0.40214615  0.23227452     0.65600
H1151       H  0.80904406  0.44441566  0.21124673     0.18500
N1152       N  0.89404490  0.43118637  0.20657508     0.76100
H1153       H  0.88056588  0.38696315  0.22444957     0.10000
C1154       C  0.83054939  0.34802496  0.21561677     0.03700
C1155       C  0.82164847  0.32420584  0.22164999    -0.05000
C1156       C  0.81864976  0.31685096  0.24664533    -0.23400
C1157       C  0.82726717  0.33296630  0.26585333     0.13000
C1158       C  0.83568318  0.35722967  0.25980458    -0.12500
N1159       N  0.83210654  0.35509314  0.18988555     0.64600
H1160       H  0.81526798  0.31209599  0.20676798     0.12500
N1161       N  0.82532696  0.32587702  0.29157017     0.61300
H1162       H  0.84058708  0.37015652  0.27467427     0.08600
O1163       O  0.90695003  0.41913445  0.19093156    -0.40200
O1164       O  0.90451462  0.44678954  0.22093696    -0.39400
O1165       O  0.78733853  0.41097274  0.25224288    -0.39400
O1166       O  0.78175486  0.39388690  0.21560570    -0.37100
O1167       O  0.84161759  0.31171449  0.30109428    -0.38000
O1168       O  0.80952629  0.33637464  0.30553596    -0.34100
O1169       O  0.85053919  0.34816752  0.17704231    -0.35500
O1170       O  0.81360744  0.36503890  0.17917621    -0.39800
C1171       C  0.13455716  0.67319582  0.22347868    -0.13500
C1172       C  0.11340283  0.68495462  0.23383116     0.16900
C1173       C  0.11694748  0.70044168  0.25515607     0.03200
C1174       C  0.14115164  0.70604362  0.26355847    -0.12000
C1175       C  0.16230539  0.69585853  0.25184143    -0.03100
C1176       C  0.15875453  0.67818875  0.23246835     0.02400
C1177       C  0.08827906  0.68140503  0.22157732     0.09200
N1178       N  0.09635308  0.71109657  0.26833968     0.65600
H1179       H  0.14335340  0.71940990  0.27872285     0.18500
N1180       N  0.17950762  0.66476884  0.22223894     0.76100
H1181       H  0.13225455  0.65981593  0.20836986     0.10000
C1182       C  0.08519894  0.68398602  0.19532852     0.03700
C1183       C  0.06196484  0.67968823  0.18408711    -0.05000
C1184       C  0.04104584  0.67311666  0.19822564    -0.23400
C1185       C  0.04373701  0.67104441  0.22444262     0.13000
C1186       C  0.06722391  0.67475126  0.23576918    -0.12500
N1187       N  0.10547127  0.69105121  0.17962554     0.64600
H1188       H  0.06025141  0.68151471  0.16393517     0.12500
N1189       N  0.02314379  0.66398778  0.23968398     0.61300
H1190       H  0.06903903  0.67159567  0.25567235     0.08600
O1191       O  0.18169653  0.66212851  0.19886817    -0.40200
O1192       O  0.19473823  0.65392058  0.23667152    -0.39400
O1193       O  0.08861849  0.70030420  0.28778622    -0.39400
O1194       O  0.09087329  0.73381198  0.26501363    -0.37100
O1195       O  0.02028707  0.64131591  0.24557869    -0.38000
O1196       O  0.01079823  0.68067848  0.25093069    -0.34100
O1197       O  0.11378573  0.67560266  0.16378008    -0.35500
O1198       O  0.11140724  0.71382399  0.17794875    -0.39800
C1199       C  0.26131771  0.37724400  0.77888037    -0.13500
C1200       C  0.24070922  0.37961143  0.79470391     0.16900
C1201       C  0.23100984  0.35795832  0.80623999     0.03200
C1202       C  0.24140763  0.33444883  0.80079674    -0.12000
C1203       C  0.26047991  0.33175102  0.78311404    -0.03100
C1204       C  0.27146698  0.35366770  0.77328032     0.02400
C1205       C  0.22899709  0.40461364  0.79811651     0.09200
N1206       N  0.20938623  0.35918999  0.82182812     0.65600
H1207       H  0.23351986  0.31800945  0.80939931     0.18500
N1208       N  0.29265342  0.35239732  0.75727892     0.76100
H1209       H  0.26930650  0.39380548  0.77044729     0.10000
C1210       C  0.22701901  0.41590235  0.82193403     0.03700
C1211       C  0.21308276  0.43793880  0.82477406    -0.05000
C1212       C  0.20152748  0.44943776  0.80411748    -0.23400
C1213       C  0.20457919  0.43878842  0.78010328     0.13000
C1214       C  0.21825235  0.41655748  0.77730332    -0.12500
N1215       N  0.23964476  0.40558203  0.84320121     0.64600
H1216       H  0.21150691  0.44633014  0.84321097     0.12500
N1217       N  0.19269352  0.44948228  0.75863793     0.61300
H1218       H  0.21964551  0.40801901  0.75891312     0.08600
O1219       O  0.29018561  0.35684913  0.73423123    -0.40200
O1220       O  0.31414755  0.35230013  0.76687921    -0.39400
O1221       O  0.18938391  0.36828871  0.81329371    -0.39400
O1222       O  0.20907434  0.34760000  0.84239226    -0.37100
O1223       O  0.16956010  0.44687151  0.75547519    -0.38000
O1224       O  0.20566073  0.45892046  0.74145465    -0.34100
O1225       O  0.26309349  0.40423275  0.84331190    -0.35500
O1226       O  0.22785022  0.40141187  0.86313481    -0.39800
C1227       C  0.20924102  0.69971614  0.11982767    -0.13500
C1228       C  0.22781291  0.69121700  0.10366643     0.16900
C1229       C  0.25156461  0.68567063  0.11340508     0.03200
C1230       C  0.25661796  0.68983700  0.13893653    -0.12000
C1231       C  0.23838987  0.69986226  0.15503743    -0.03100
C1232       C  0.21411680  0.70422813  0.14514338     0.02400
C1233       C  0.22153564  0.68942166  0.07667279     0.09200
N1234       N  0.27113522  0.67735154  0.09737502     0.65600
H1235       H  0.27529284  0.68636308  0.14583774     0.18500
N1236       N  0.19424912  0.71423916  0.15992423     0.76100
H1237       H  0.19081533  0.70372037  0.11247199     0.10000
C1238       C  0.21732938  0.66618983  0.06493644     0.03700
C1239       C  0.20582377  0.66542580  0.04133840    -0.05000
C1240       C  0.19723666  0.68746143  0.02959502    -0.23400
C1241       C  0.20302638  0.71078100  0.04070929     0.13000
C1242       C  0.21537491  0.71150526  0.06386788    -0.12500
N1243       N  0.22207035  0.64323552  0.07782898     0.64600
H1244       H  0.20199471  0.64731862  0.03295740     0.12500
N1245       N  0.19421931  0.73375877  0.03023552     0.61300
H1246       H  0.21837946  0.72943883  0.07286814     0.08600
O1247       O  0.19197009  0.73768894  0.16176552    -0.40200
O1248       O  0.17543888  0.70077940  0.16394216    -0.39400
O1249       O  0.28279168  0.69313441  0.08441460    -0.39400
O1250       O  0.27986600  0.65553978  0.09988104    -0.37100
O1251       O  0.17194561  0.74037454  0.03373023    -0.38000
O1252       O  0.20960488  0.74940337  0.02182707    -0.34100
O1253       O  0.20628937  0.63518410  0.09324865    -0.35500
O1254       O  0.23904325  0.62878919  0.07018308    -0.39800
C1255       C  0.09013686  0.47834671  0.93689851    -0.13500
C1256       C  0.08445247  0.49283188  0.91584745     0.16900
C1257       C  0.06230381  0.50693597  0.91544496     0.03200
C1258       C  0.04634652  0.50631730  0.93605115    -0.12000
C1259       C  0.05213586  0.49230197  0.95749345    -0.03100
C1260       C  0.07441743  0.47805974  0.95783321     0.02400
C1261       C  0.10172452  0.49254443  0.89433806     0.09200
N1262       N  0.05543039  0.52143325  0.89402027     0.65600
H1263       H  0.02893807  0.51632799  0.93501500     0.18500
N1264       N  0.08150227  0.46315685  0.97897104     0.76100
H1265       H  0.10720426  0.46749150  0.93718721     0.10000
C1266       C  0.11818029  0.51248050  0.89009029     0.03700
C1267       C  0.13379986  0.51205283  0.86924065    -0.05000
C1268       C  0.13390021  0.49171600  0.85255111    -0.23400
C1269       C  0.11780595  0.47129966  0.85725041     0.13000
C1270       C  0.10194633  0.47193181  0.87806602    -0.12500
N1271       N  0.11999287  0.53289982  0.90728771     0.64600
H1272       H  0.14674797  0.52735100  0.86668956     0.12500
N1273       N  0.11693045  0.45004969  0.84091724     0.61300
H1274       H  0.08956737  0.45636611  0.88146547     0.08600
O1275       O  0.09053889  0.44159820  0.97541941    -0.40200
O1276       O  0.08422851  0.47331870  0.00014473    -0.39400
O1277       O  0.03639774  0.51543834  0.88145648    -0.39400
O1278       O  0.06498987  0.54274906  0.89091654    -0.37100
O1279       O  0.10701700  0.45201618  0.81954691    -0.38000
O1280       O  0.12253869  0.42864308  0.84920492    -0.34100
O1281       O  0.12561845  0.52870443  0.92987274    -0.35500
O1282       O  0.12100538  0.55495379  0.89895234    -0.39800
C1283       C  0.05547071  0.57895761  0.97976031    -0.13500
C1284       C  0.07977488  0.57730561  0.98910519     0.16900
C1285       C  0.08813901  0.55456918  0.99933717     0.03200
C1286       C  0.07214627  0.53389569  0.00012463    -0.12000
C1287       C  0.04765887  0.53531393  0.99083177    -0.03100
C1288       C  0.03933336  0.55832347  0.98054208     0.02400
C1289       C  0.09597255  0.59971460  0.98869332     0.09200
N1290       N  0.11257597  0.55252176  0.00979075     0.65600
H1291       H  0.07850412  0.51709913  0.00927461     0.18500
N1292       N  0.01440722  0.56156133  0.97164097     0.76100
H1293       H  0.04891394  0.59650140  0.97196764     0.10000
C1294       C  0.11286665  0.60377277  0.96906991     0.03700
C1295       C  0.12822716  0.62484385  0.96938907    -0.05000
C1296       C  0.12691848  0.64242883  0.98882078    -0.23400
C1297       C  0.10998427  0.63841902  0.00858405     0.13000
C1298       C  0.09477426  0.61706285  0.00841719    -0.12500
N1299       N  0.11464788  0.58675410  0.94855190     0.64600
H1300       H  0.14139358  0.62744920  0.95430520     0.12500
N1301       N  0.10737316  0.65625934  0.02840358     0.61300
H1302       H  0.08179823  0.61411554  0.02359897     0.08600
O1303       O  0.00100876  0.57827375  0.98155068    -0.40200
O1304       O  0.00868494  0.55369649  0.95009080    -0.39400
O1305       O  0.11686158  0.56031838  0.03172154    -0.39400
O1306       O  0.12991871  0.54292543  0.99710389    -0.37100
O1307       O  0.09515042  0.67610820  0.02463664    -0.38000
O1308       O  0.11321916  0.65022514  0.05049567    -0.34100
O1309       O  0.09645977  0.58460948  0.93367254    -0.35500
O1310       O  0.13581816  0.57886245  0.94205942    -0.39800
C1311       C  0.98728339  0.56963432  0.05031006    -0.13500
C1312       C  0.00763277  0.57491047  0.06604194     0.16900
C1313       C  0.02967623  0.56083038  0.06326926     0.03200
C1314       C  0.03068338  0.54150999  0.04552878    -0.12000
C1315       C  0.01020299  0.53566178  0.03012986    -0.03100
C1316       C  0.98823678  0.55040554  0.03216483     0.02400
C1317       C  0.00469801  0.59365871  0.08657096     0.09200
N1318       N  0.05057539  0.56455826  0.07956564     0.65600
H1319       H  0.04723911  0.52994278  0.04478454     0.18500
N1320       N  0.96681243  0.54624258  0.01631767     0.76100
H1321       H  0.97046261  0.58067195  0.05228624     0.10000
C1322       C  0.02090698  0.61428680  0.08960603     0.03700
C1323       C  0.01871425  0.62978083  0.11078093    -0.05000
C1324       C  0.00013141  0.62570775  0.12870434    -0.23400
C1325       C  0.98350630  0.60556036  0.12524479     0.13000
C1326       C  0.98594713  0.58979495  0.10435937    -0.12500
N1327       N  0.03886484  0.62044422  0.07088642     0.64600
H1328       H  0.03108525  0.64566779  0.11282500     0.12500
N1329       N  0.96481483  0.60011922  0.14337541     0.61300
H1330       H  0.97355105  0.57391146  0.10241371     0.08600
O1331       O  0.94550299  0.55329696  0.02333843    -0.40200
O1332       O  0.96909629  0.53683214  0.99473086    -0.39400
O1333       O  0.04854278  0.56014635  0.10267069    -0.39400
O1334       O  0.07188326  0.56809182  0.07040352    -0.37100
O1335       O  0.94212673  0.60195848  0.13744996    -0.38000
O1336       O  0.97084051  0.58928269  0.16348209    -0.34100
O1337       O  0.03163235  0.62570705  0.04900181    -0.35500
O1338       O  0.06101446  0.62521413  0.07723079    -0.39800
C1339       C  0.96141284  0.49277387  0.07884229    -0.13500
C1340       C  0.93683926  0.48847628  0.07084034     0.16900
C1341       C  0.93186726  0.48815074  0.04484301     0.03200
C1342       C  0.95147735  0.49042482  0.02779740    -0.12000
C1343       C  0.97640623  0.49213559  0.03583925    -0.03100
C1344       C  0.98127557  0.49387213  0.06190537     0.02400
C1345       C  0.91713220  0.48462536  0.09019288     0.09200
N1346       N  0.90721789  0.48475781  0.03529231     0.65600
H1347       H  0.94722634  0.49019208  0.00795191     0.18500
N1348       N  0.00608795  0.49599990  0.07175856     0.76100
H1349       H  0.96537812  0.49442088  0.09868103     0.10000
C1350       C  0.92149870  0.46891433  0.11104652     0.03700
C1351       C  0.90477949  0.46866878  0.13101108    -0.05000
C1352       C  0.88239002  0.48225124  0.13014105    -0.23400
C1353       C  0.87676848  0.49598588  0.10813247     0.13000
C1354       C  0.89457507  0.49796907  0.08904499    -0.12500
N1355       N  0.94267442  0.45265990  0.11207360     0.64600
H1356       H  0.90960250  0.45776942  0.14740334     0.12500
N1357       N  0.85278278  0.50713030  0.10436346     0.61300
H1358       H  0.89064886  0.51006731  0.07329931     0.08600
O1359       O  0.01018751  0.50949741  0.09079621    -0.40200
O1360       O  0.02331192  0.48221700  0.06351411    -0.39400
O1361       O  0.89650713  0.50256174  0.02405101    -0.39400
O1362       O  0.89832176  0.46297883  0.03366187    -0.37100
O1363       O  0.85100456  0.53002936  0.09881769    -0.38000
O1364       O  0.83377230  0.49335610  0.10289974    -0.34100
O1365       O  0.95777731  0.45424934  0.13018152    -0.35500
O1366       O  0.94366343  0.43392739  0.09764259    -0.39800
C1367       C  0.96088880  0.41456633  0.02226444    -0.13500
C1368       C  0.94415669  0.41158609  0.00234604     0.16900
C1369       C  0.94493330  0.42834321  0.98210994     0.03200
C1370       C  0.96286640  0.44731336  0.98169403    -0.12000
C1371       C  0.98045381  0.44987024  0.00113732    -0.03100
C1372       C  0.97902071  0.43347649  0.02194468     0.02400
C1373       C  0.92500699  0.39177652  0.00355100     0.09200
N1374       N  0.92712022  0.42670528  0.96221944     0.65600
H1375       H  0.96288597  0.46037809  0.96621666     0.18500
N1376       N  0.99573538  0.43560617  0.04281900     0.76100
H1377       H  0.95994595  0.40195287  0.03809126     0.10000
C1378       C  0.92971436  0.36736907  0.99461428     0.03700
C1379       C  0.91059970  0.34952285  0.99457268    -0.05000
C1380       C  0.88692617  0.35561101  0.00375472    -0.23400
C1381       C  0.88236719  0.37989105  0.01306748     0.13000
C1382       C  0.90141648  0.39773359  0.01292413    -0.12500
N1383       N  0.95378587  0.36053714  0.98556758     0.64600
H1384       H  0.91424321  0.33082998  0.98747299     0.12500
N1385       N  0.85825860  0.38686827  0.02194746     0.61300
H1386       H  0.89763402  0.41649523  0.01965682     0.08600
O1387       O  0.01892161  0.43547480  0.03933439    -0.40200
O1388       O  0.98752836  0.43375384  0.06484592    -0.39400
O1389       O  0.90886273  0.44159806  0.96162233    -0.39400
O1390       O  0.92903514  0.40975898  0.94581052    -0.37100
O1391       O  0.85550338  0.39360700  0.04443886    -0.38000
O1392       O  0.84046150  0.38936634  0.00664731    -0.34100
O1393       O  0.97087219  0.35513338  0.00092730    -0.35500
O1394       O  0.95694286  0.35642594  0.96251445    -0.39800
C1395       C  0.01834456  0.40972795  0.94238770    -0.13500
C1396       C  0.01050400  0.41825682  0.91885993     0.16900
C1397       C  0.00445619  0.44368270  0.91587881     0.03200
C1398       C  0.00704026  0.46026673  0.93609164    -0.12000
C1399       C  0.01575371  0.45212611  0.95959584    -0.03100
C1400       C  0.02082364  0.42624231  0.96282214     0.02400
C1401       C  0.00761905  0.40008463  0.89796929     0.09200
N1402       N  0.99471594  0.45271900  0.89267742     0.65600
H1403       H  0.00150360  0.47961562  0.93360343     0.18500
N1404       N  0.02743751  0.41607980  0.98669723     0.76100
H1405       H  0.02240651  0.39000311  0.94493276     0.10000
C1406       C  0.02706809  0.39543428  0.88103104     0.03700
C1407       C  0.02412390  0.37736220  0.86214246    -0.05000
C1408       C  0.00206836  0.36329412  0.85983962    -0.23400
C1409       C  0.98234489  0.36851030  0.87660266     0.13000
C1410       C  0.98528965  0.38681930  0.89535607    -0.12500
N1411       N  0.04998491  0.40884123  0.88285460     0.64600
H1412       H  0.03932755  0.37422641  0.84923780     0.12500
N1413       N  0.95965121  0.35466157  0.87570425     0.61300
H1414       H  0.97023452  0.39030509  0.90836002     0.08600
O1415       O  0.04790291  0.42190382  0.99672363    -0.40200
O1416       O  0.01561319  0.39748416  0.99499131    -0.39400
O1417       O  0.97148846  0.45480475  0.88979282    -0.39400
O1418       O  0.00915960  0.46240381  0.87689485    -0.37100
O1419       O  0.95879799  0.33315933  0.88538214    -0.38000
O1420       O  0.93964933  0.36565774  0.86984872    -0.34100
O1421       O  0.06659030  0.40152358  0.89795047    -0.35500
O1422       O  0.05537506  0.42471335  0.86630544    -0.39800
C1423       C  0.30484519  0.80760873  0.10167027    -0.13500
C1424       C  0.27940841  0.81299303  0.10387414     0.16900
C1425       C  0.26611108  0.82162288  0.08270336     0.03200
C1426       C  0.27843778  0.82445725  0.05978674    -0.12000
C1427       C  0.30394154  0.81915027  0.05766301    -0.03100
C1428       C  0.31711302  0.81045539  0.07882481     0.02400
C1429       C  0.26690139  0.80652019  0.12767248     0.09200
N1430       N  0.24038092  0.82834207  0.08439922     0.65600
H1431       H  0.26824260  0.83162828  0.04377174     0.18500
N1432       N  0.34264421  0.80316430  0.07703252     0.76100
H1433       H  0.31504546  0.80022412  0.11759151     0.10000
C1434       C  0.24958300  0.78677408  0.12848242     0.03700
C1435       C  0.24109692  0.77825808  0.15158501    -0.05000
C1436       C  0.25001449  0.78835974  0.17414105    -0.23400
C1437       C  0.26648039  0.80875844  0.17348955     0.13000
C1438       C  0.27478595  0.81774619  0.15024108    -0.12500
N1439       N  0.24298384  0.77296826  0.10640532     0.64600
H1440       H  0.22978873  0.76155711  0.15190240     0.12500
N1441       N  0.27623061  0.81915302  0.19622229     0.61300
H1442       H  0.28829159  0.83277727  0.14979424     0.08600
O1443       O  0.34813456  0.78204031  0.06791487    -0.40200
O1444       O  0.35914302  0.81575628  0.08824664    -0.39400
O1445       O  0.23408219  0.84712419  0.09732482    -0.39400
O1446       O  0.22475866  0.81852545  0.06964742    -0.37100
O1447       O  0.26163685  0.82660066  0.21315119    -0.38000
O1448       O  0.29943885  0.82066832  0.19956776    -0.34100
O1449       O  0.25922664  0.75975445  0.09556520    -0.35500
O1450       O  0.22032588  0.76986536  0.10095840    -0.39800
C1451       C  0.42130799  0.80749744  0.20513248    -0.13500
C1452       C  0.41215109  0.78303519  0.20180365     0.16900
C1453       C  0.42827286  0.76496628  0.19091355     0.03200
C1454       C  0.45233186  0.77177097  0.18308084    -0.12000
C1455       C  0.46099472  0.79642016  0.18553237    -0.03100
C1456       C  0.44539048  0.81420790  0.19733656     0.02400
C1457       C  0.38560279  0.77725434  0.20882246     0.09200
N1458       N  0.42086574  0.73945158  0.18793763     0.65600
H1459       H  0.46400128  0.75781101  0.17414739     0.18500
N1460       N  0.45396316  0.83911675  0.20198388     0.76100
H1461       H  0.40951423  0.82169505  0.21348278     0.10000
C1462       C  0.37602451  0.78227548  0.23301679     0.03700
C1463       C  0.35070886  0.77781262  0.23841195    -0.05000
C1464       C  0.33440241  0.76791549  0.22024380    -0.23400
C1465       C  0.34390547  0.76336460  0.19595524     0.13000
C1466       C  0.36901336  0.76830462  0.19046832    -0.12500
N1467       N  0.39204127  0.79073612  0.25271713     0.64600
H1468       H  0.34412345  0.78086798  0.25732871     0.12500
N1469       N  0.32813262  0.75410956  0.17639895     0.61300
H1470       H  0.37541566  0.76559699  0.17146400     0.08600
O1471       O  0.46747742  0.84347560  0.22088313    -0.40200
O1472       O  0.44485564  0.85716818  0.18978010    -0.39400
O1473       O  0.40948227  0.73301120  0.16823193    -0.39400
O1474       O  0.43208835  0.72288777  0.20048619    -0.37100
O1475       O  0.31315549  0.76878802  0.16557614    -0.38000
O1476       O  0.33182627  0.73252881  0.16743274    -0.34100
O1477       O  0.38983716  0.81278035  0.26101962    -0.35500
O1478       O  0.40482419  0.77500833  0.26483305    -0.39800
C1479       C  0.35677192  0.23133512  0.81482625    -0.13500
C1480       C  0.37563883  0.21922706  0.80098871     0.16900
C1481       C  0.37121595  0.21354389  0.77568695     0.03200
C1482       C  0.34852794  0.21971270  0.76466887    -0.12000
C1483       C  0.32925531  0.23157590  0.77816621    -0.03100
C1484       C  0.33357126  0.23736077  0.80363828     0.02400
C1485       C  0.39969761  0.21149369  0.81265251     0.09200
N1486       N  0.38988799  0.20176795  0.76067107     0.65600
H1487       H  0.34627214  0.21514283  0.74503543     0.18500
N1488       N  0.31448958  0.24853764  0.81848821     0.76100
H1489       H  0.35985228  0.23555735  0.83445018     0.10000
C1490       C  0.41829763  0.22907362  0.81873039     0.03700
C1491       C  0.44211356  0.22089385  0.82613641    -0.05000
C1492       C  0.44779252  0.19524078  0.82786075    -0.23400
C1493       C  0.42902032  0.17763245  0.82193911     0.13000
C1494       C  0.40530744  0.18586296  0.81448791    -0.12500
N1495       N  0.41339252  0.25529743  0.81695326     0.64600
H1496       H  0.45614630  0.23466182  0.83093767     0.12500
N1497       N  0.43406434  0.15132968  0.82224753     0.61300
H1498       H  0.39134003  0.17212359  0.80938413     0.08600
O1499       O  0.31496287  0.27172648  0.82307704    -0.40200
O1500       O  0.29631128  0.23554507  0.82570326    -0.39400
O1501       O  0.38803152  0.17880081  0.75536425    -0.39400
O1502       O  0.40523491  0.21510808  0.74892826    -0.37100
O1503       O  0.44260775  0.14091512  0.80285008    -0.38000
O1504       O  0.42500021  0.13796754  0.83937134    -0.34100
O1505       O  0.40596765  0.26716678  0.83598430    -0.35500
O1506       O  0.42003606  0.26716202  0.79772589    -0.39800
C1507       C  0.27098182  0.13882584  0.81426091    -0.13500
C1508       C  0.29331448  0.12794491  0.80561592     0.16900
C1509       C  0.30809230  0.14185731  0.78885185     0.03200
C1510       C  0.30006458  0.16547206  0.78062883    -0.12000
C1511       C  0.27677559  0.17545507  0.78746790    -0.03100
C1512       C  0.26272044  0.16242023  0.80547993     0.02400
C1513       C  0.30049762  0.10173083  0.81305332     0.09200
N1514       N  0.32990273  0.13117787  0.77773334     0.65600
H1515       H  0.31113680  0.17501264  0.76669273     0.18500
N1516       N  0.23943224  0.17212074  0.81393538     0.76100
H1517       H  0.25956235  0.12864002  0.82741112     0.10000
C1518       C  0.32413227  0.09610188  0.82331879     0.03700
C1519       C  0.33140109  0.07104238  0.82678544    -0.05000
C1520       C  0.31507797  0.05083478  0.82217518    -0.23400
C1521       C  0.29105902  0.05664091  0.81261360     0.13000
C1522       C  0.28425958  0.08174818  0.80782636    -0.12500
N1523       N  0.34059218  0.11563141  0.83141603     0.64600
H1524       H  0.35002805  0.06750942  0.83373847     0.12500
N1525       N  0.27291708  0.03755303  0.80844214     0.61300
H1526       H  0.26604311  0.08566904  0.79995786     0.08600
O1527       O  0.23910248  0.18857502  0.83094888    -0.40200
O1528       O  0.21946115  0.16139160  0.80764209    -0.39400
O1529       O  0.32811320  0.11143198  0.76478796    -0.39400
O1530       O  0.34983154  0.14361162  0.77715542    -0.37100
O1531       O  0.26069705  0.02923777  0.82672591    -0.38000
O1532       O  0.26552203  0.03301190  0.78642333    -0.34100
O1533       O  0.33339998  0.13110481  0.84778920    -0.35500
O1534       O  0.36336713  0.11472425  0.82578846    -0.39800
C1535       C  0.69926747  0.22754600  0.08168984    -0.13500
C1536       C  0.69782768  0.21167556  0.10258238     0.16900
C1537       C  0.69061082  0.18669116  0.09885648     0.03200
C1538       C  0.68518544  0.17782049  0.07475129    -0.12000
C1539       C  0.68610524  0.19359844  0.05365223    -0.03100
C1540       C  0.69315937  0.21889425  0.05744008     0.02400
C1541       C  0.70568820  0.22068033  0.12789700     0.09200
N1542       N  0.68930864  0.16985165  0.11944690     0.65600
H1543       H  0.68044150  0.15822024  0.07257638     0.18500
N1544       N  0.69310265  0.23635000  0.03722328     0.76100
H1545       H  0.70480546  0.24688489  0.08429571     0.10000
C1546       C  0.73085369  0.22596464  0.13270002     0.03700
C1547       C  0.73849222  0.23303342  0.15672393    -0.05000
C1548       C  0.72159219  0.23515894  0.17661952    -0.23400
C1549       C  0.69621060  0.23035595  0.17191789     0.13000
C1550       C  0.68847983  0.22286900  0.14767410    -0.12500
N1551       N  0.74915801  0.22290358  0.11360685     0.64600
H1552       H  0.75807866  0.23634752  0.15994807     0.12500
N1553       N  0.67835935  0.23204651  0.19158860     0.61300
H1554       H  0.66903680  0.21870833  0.14426836     0.08600
O1555       O  0.71329076  0.24611703  0.03032702    -0.40200
O1556       O  0.67274488  0.24558514  0.02979266    -0.39400
O1557       O  0.66852724  0.16501070  0.12914621    -0.39400
O1558       O  0.70865051  0.15865755  0.12690215    -0.37100
O1559       O  0.67013810  0.25322039  0.19813448    -0.38000
O1560       O  0.66776300  0.21249052  0.19929586    -0.34100
O1561       O  0.75859047  0.24194417  0.10349228    -0.35500
O1562       O  0.75868563  0.20161238  0.10981344    -0.39800
C1563       C  0.68979365  0.08663165  0.22761377    -0.13500
C1564       C  0.69128881  0.10364653  0.20762247     0.16900
C1565       C  0.69082232  0.09418755  0.18293193     0.03200
C1566       C  0.68834160  0.06854948  0.17860243    -0.12000
C1567       C  0.68552054  0.05161970  0.19840282    -0.03100
C1568       C  0.68681135  0.06079450  0.22320039     0.02400
C1569       C  0.69751070  0.13039028  0.21256321     0.09200
N1570       N  0.69180100  0.11050751  0.16187280     0.65600
H1571       H  0.68759132  0.06189865  0.15940407     0.18500
N1572       N  0.68462056  0.04427474  0.24403425     0.76100
H1573       H  0.69129750  0.09335268  0.24671988     0.10000
C1574       C  0.68313121  0.14630494  0.22801041     0.03700
C1575       C  0.69205032  0.17030327  0.23454042    -0.05000
C1576       C  0.71521838  0.17880725  0.22584324    -0.23400
C1577       C  0.72867060  0.16311388  0.20900498     0.13000
C1578       C  0.71979705  0.13939740  0.20286211    -0.12500
N1579       N  0.65992487  0.13805701  0.23789040     0.64600
H1580       H  0.68135835  0.18175753  0.24737764     0.12500
N1581       N  0.75227060  0.17002972  0.19893266     0.61300
H1582       H  0.73120031  0.12737469  0.19118909     0.08600
O1583       O  0.66354735  0.04050280  0.25359976    -0.40200
O1584       O  0.70395998  0.03735469  0.25560797    -0.39400
O1585       O  0.71013273  0.10918482  0.14724078    -0.39400
O1586       O  0.67193287  0.12068997  0.15440831    -0.37100
O1587       O  0.77183734  0.16044027  0.20793080    -0.38000
O1588       O  0.75308178  0.18038329  0.17775908    -0.34100
O1589       O  0.65881008  0.13067871  0.26028152    -0.35500
O1590       O  0.64007433  0.14275746  0.22608936    -0.39800
C1591       C  0.42534767  0.02059056  0.94858898    -0.13500
C1592       C  0.42353728  0.99843261  0.93459848     0.16900
C1593       C  0.44079148  0.97913028  0.93891183     0.03200
C1594       C  0.45908325  0.98192652  0.95749509    -0.12000
C1595       C  0.46043494  0.00365131  0.97258800    -0.03100
C1596       C  0.44345755  0.02352292  0.96753186     0.02400
C1597       C  0.40465389  0.99652688  0.91429499     0.09200
N1598       N  0.44015359  0.95671344  0.92424170     0.65600
H1599       H  0.47237887  0.96689652  0.96026940     0.18500
N1600       N  0.44413861  0.04677835  0.98107153     0.76100
H1601       H  0.41236324  0.03569962  0.94485809     0.10000
C1602       C  0.38014958  0.98840608  0.91896311     0.03700
C1603       C  0.36245550  0.98821856  0.89945203    -0.05000
C1604       C  0.36900854  0.99576013  0.87519922    -0.23400
C1605       C  0.39373746  0.00295601  0.87042107     0.13000
C1606       C  0.41125112  0.00353258  0.88995117    -0.12500
N1607       N  0.37302005  0.98047823  0.94343044     0.64600
H1608       H  0.34351247  0.98255604  0.90330080     0.12500
N1609       N  0.40126897  0.00963695  0.84570144     0.61300
H1610       H  0.43012041  0.00947313  0.88611952     0.08600
O1611       O  0.44113307  0.06717917  0.96953197    -0.40200
O1612       O  0.44546776  0.04705166  0.00465169    -0.39400
O1613       O  0.45349848  0.95481004  0.90494949    -0.39400
O1614       O  0.42524473  0.93938094  0.92972968    -0.37100
O1615       O  0.40441017  0.99279453  0.82937414    -0.38000
O1616       O  0.40713760  0.03196340  0.84087412    -0.34100
O1617       O  0.36318696  0.99591135  0.95836298    -0.35500
O1618       O  0.37344642  0.95749639  0.94885744    -0.39800
C1619       C  0.41615756  0.95125839  0.01031987    -0.13500
C1620       C  0.42383071  0.92613407  0.00914236     0.16900
C1621       C  0.44952904  0.92081439  0.00711904     0.03200
C1622       C  0.46669003  0.94038524  0.00700929    -0.12000
C1623       C  0.45916832  0.96523491  0.01102990    -0.03100
C1624       C  0.43343570  0.97072637  0.01259414     0.02400
C1625       C  0.40474801  0.90596263  0.01006862     0.09200
N1626       N  0.45872054  0.89568076  0.00634376     0.65600
H1627       H  0.48624296  0.93602459  0.00472979     0.18500
N1628       N  0.42454530  0.99554530  0.01784665     0.76100
H1629       H  0.39651690  0.95574268  0.01065693     0.10000
C1630       C  0.38504691  0.90665446  0.02753669     0.03700
C1631       C  0.36696622  0.88792064  0.02726533    -0.05000
C1632       C  0.36870196  0.86730413  0.01097522    -0.23400
C1633       C  0.38890503  0.86615599  0.99407492     0.13000
C1634       C  0.40590980  0.88592624  0.99303491    -0.12500
N1635       N  0.38352060  0.92572623  0.04633706     0.64600
H1636       H  0.35154064  0.88954085  0.04015072     0.12500
N1637       N  0.39333267  0.84449330  0.97887274     0.61300
H1638       H  0.42046952  0.88523630  0.97911721     0.08600
O1639       O  0.43419195  0.00808855  0.03542737    -0.40200
O1640       O  0.40455942  0.00322989  0.00795553    -0.39400
O1641       O  0.47022880  0.88801459  0.98723437    -0.39400
O1642       O  0.45960858  0.88302377  0.02623720    -0.37100
O1643       O  0.39518876  0.84669078  0.95542490    -0.38000
O1644       O  0.39951960  0.82413540  0.98913155    -0.34100
O1645       O  0.36528860  0.94067484  0.04634007    -0.35500
O1646       O  0.39718467  0.92421215  0.06554665    -0.39800
C1647       C  0.57839736  0.05452834  0.99463641    -0.13500
C1648       C  0.57836817  0.07461609  0.01149525     0.16900
C1649       C  0.55909123  0.07649560  0.02917590     0.03200
C1650       C  0.54050602  0.05802964  0.03003237    -0.12000
C1651       C  0.54003208  0.03811363  0.01265637    -0.03100
C1652       C  0.55950195  0.03638805  0.99487446     0.02400
C1653       C  0.59805314  0.09403063  0.00961219     0.09200
N1654       N  0.55718454  0.09804173  0.04503326     0.65600
H1655       H  0.52557650  0.06001943  0.04342663     0.18500
N1656       N  0.56034788  0.01673955  0.97658346     0.76100
H1657       H  0.59320896  0.05303772  0.98100504     0.10000
C1658       C  0.61709929  0.09623302  0.02770873     0.03700
C1659       C  0.63463856  0.11551730  0.02579854    -0.05000
C1660       C  0.63393395  0.13272834  0.00588463    -0.23400
C1661       C  0.61515493  0.13004354  0.98742922     0.13000
C1662       C  0.59747751  0.11082330  0.98947184    -0.12500
N1663       N  0.61962820  0.07832419  0.04741430     0.64600
H1664       H  0.64934057  0.11666271  0.03971755     0.12500
N1665       N  0.61308769  0.14721665  0.96706579     0.61300
H1666       H  0.58286043  0.10929667  0.97549564     0.08600
O1667       O  0.56447033  0.02217069  0.95399496    -0.40200
O1668       O  0.56301817  0.99433531  0.98352434    -0.39400
O1669       O  0.55125837  0.11898286  0.03582932    -0.39400
O1670       O  0.56100752  0.09613591  0.06827667    -0.37100
O1671       O  0.60254117  0.16808402  0.97044151    -0.38000
O1672       O  0.61721059  0.13969092  0.94503912    -0.34100
O1673       O  0.62723066  0.05654247  0.04227889    -0.35500
O1674       O  0.61967468  0.08561553  0.06992113    -0.39800
C1675       C  0.50107209  0.06227665  0.93441755    -0.13500
C1676       C  0.50117480  0.08641937  0.94480153     0.16900
C1677       C  0.50007824  0.08923381  0.97095095     0.03200
C1678       C  0.49875205  0.06796319  0.98614819    -0.12000
C1679       C  0.49988069  0.04358484  0.97597346    -0.03100
C1680       C  0.50092032  0.04085070  0.94955391     0.02400
C1681       C  0.50117611  0.10830724  0.92776014     0.09200
N1682       N  0.50094242  0.11353407  0.98231243     0.65600
H1683       H  0.49701527  0.07049722  0.00618798     0.18500
N1684       N  0.50150300  0.01677908  0.93757080     0.76100
H1685       H  0.50134761  0.06007432  0.91423846     0.10000
C1686       C  0.52001526  0.11121955  0.90988721     0.03700
C1687       C  0.51793140  0.12981066  0.89170034    -0.05000
C1688       C  0.49802736  0.14709868  0.89165557    -0.23400
C1689       C  0.47985691  0.14506775  0.91077529     0.13000
C1690       C  0.48130516  0.12538341  0.92813155    -0.12500
N1691       N  0.54172428  0.09570081  0.91032939     0.64600
H1692       H  0.53201886  0.13025892  0.87729947     0.12500
N1693       N  0.46022187  0.16301326  0.91338574     0.61300
H1694       H  0.46681550  0.12342914  0.94203119     0.08600
O1695       O  0.48857097  0.01295057  0.91812204    -0.40200
O1696       O  0.51688558  0.00031323  0.94453203    -0.39400
O1697       O  0.51977675  0.12728418  0.97940720    -0.39400
O1698       O  0.48338620  0.12086187  0.99615075    -0.37100
O1699       O  0.46521734  0.18505998  0.92031275    -0.38000
O1700       O  0.43785286  0.15585287  0.91291920    -0.34100
O1701       O  0.54484055  0.07935618  0.89351029    -0.35500
O1702       O  0.55962683  0.10139054  0.92461441    -0.39800
C1703       C  0.49496565  0.87188356  0.08663615    -0.13500
C1704       C  0.50588822  0.89451213  0.09438476     0.16900
C1705       C  0.51786322  0.89555873  0.11791233     0.03200
C1706       C  0.51858868  0.87430057  0.13332101    -0.12000
C1707       C  0.50711341  0.85187603  0.12589950    -0.03100
C1708       C  0.49543991  0.85066274  0.10219991     0.02400
C1709       C  0.50380670  0.91719493  0.07829824     0.09200
N1710       N  0.52870368  0.91835962  0.12671268     0.65600
H1711       H  0.52758687  0.87549953  0.15149430     0.18500
N1712       N  0.48429100  0.82791709  0.09361368     0.76100
H1713       H  0.48582978  0.87077438  0.06855102     0.10000
C1714       C  0.52153643  0.92267909  0.05983078     0.03700
C1715       C  0.51922013  0.94457805  0.04543327    -0.05000
C1716       C  0.49911374  0.96130439  0.04865682    -0.23400
C1717       C  0.48069951  0.95500748  0.06657717     0.13000
C1718       C  0.48345846  0.93331948  0.08127175    -0.12500
N1719       N  0.54141929  0.90561430  0.05480476     0.64600
H1720       H  0.53290445  0.94823131  0.03107813     0.12500
N1721       N  0.45857440  0.96959243  0.06960496     0.61300
H1722       H  0.46942370  0.92890203  0.09507158     0.08600
O1723       O  0.49705135  0.81237551  0.08125422    -0.40200
O1724       O  0.46105183  0.82507844  0.09515715    -0.39400
O1725       O  0.51567279  0.93357454  0.13918283    -0.39400
O1726       O  0.55197433  0.92123674  0.12579614    -0.37100
O1727       O  0.43772529  0.95888875  0.06797194    -0.38000
O1728       O  0.45977662  0.99063419  0.08026068    -0.34100
O1729       O  0.53914024  0.88957688  0.03753780    -0.35500
O1730       O  0.56033927  0.90514884  0.06887066    -0.39800
C1731       C  0.54807167  0.00738857  0.09563947    -0.13500
C1732       C  0.57264252  0.00072446  0.08984965     0.16900
C1733       C  0.57827900  0.99375324  0.06491627     0.03200
C1734       C  0.55945146  0.99361928  0.04699322    -0.12000
C1735       C  0.53534346  0.00162085  0.05232485    -0.03100
C1736       C  0.52955413  0.00893188  0.07715518     0.02400
C1737       C  0.59167211  0.00004047  0.11021812     0.09200
N1738       N  0.60304488  0.98751116  0.05747514     0.65600
H1739       H  0.56415257  0.98713409  0.02730509     0.18500
N1740       N  0.50541659  0.01841053  0.08382906     0.76100
H1741       H  0.54323335  0.01194158  0.11503140     0.10000
C1742       C  0.59345352  0.01929346  0.12829997     0.03700
C1743       C  0.61030003  0.01703222  0.14818116    -0.05000
C1744       C  0.62788211  0.99737435  0.14921260    -0.23400
C1745       C  0.62593450  0.97805734  0.13093607     0.13000
C1746       C  0.60734810  0.97916310  0.11252178    -0.12500
N1747       N  0.57947753  0.04203429  0.12592873     0.64600
H1748       H  0.61020322  0.03164112  0.16228013     0.12500
N1749       N  0.64326606  0.95780824  0.12956097     0.61300
H1750       H  0.60561231  0.96362687  0.09951056     0.08600
O1751       O  0.49357573  0.03255507  0.06907299    -0.40200
O1752       O  0.49746334  0.01562491  0.10587197    -0.39400
O1753       O  0.60761750  0.96596274  0.04880783    -0.39400
O1754       O  0.61889619  0.00467435  0.05489588    -0.37100
O1755       O  0.66137831  0.95951880  0.11473160    -0.38000
O1756       O  0.63655826  0.93638776  0.13679992    -0.34100
O1757       O  0.56503264  0.04880420  0.14325998    -0.52300
O1758       O  0.58478677  0.05728890  0.10876839    -0.39800
C1759       C  0.77048942  0.89838551  0.33529810    -0.13500
C1760       C  0.76989059  0.88833473  0.31111916     0.16900
C1761       C  0.77712181  0.90325163  0.29068523     0.03200
C1762       C  0.78581715  0.92764997  0.29481614    -0.12000
C1763       C  0.78766962  0.93740911  0.31916074    -0.03100
C1764       C  0.77928061  0.92272272  0.33950909     0.02400
C1765       C  0.76454443  0.86144451  0.30759712     0.09200
N1766       N  0.77718793  0.89324053  0.26582830     0.65600
H1767       H  0.79248883  0.93847143  0.27908711     0.18500
N1768       N  0.78019755  0.93200058  0.36464062     0.76100
H1769       H  0.76499577  0.88695505  0.35106352     0.10000
C1770       C  0.78417335  0.84400636  0.30631705     0.03700
C1771       C  0.77955703  0.81957672  0.29808814    -0.05000
C1772       C  0.75537636  0.81195814  0.29198251    -0.23400
C1773       C  0.73528876  0.82873372  0.29594174     0.13000
C1774       C  0.74011201  0.85348387  0.30329019    -0.12500
N1775       N  0.80902925  0.85124515  0.31245227     0.64600
H1776       H  0.79502527  0.80679145  0.29558034     0.12500
N1777       N  0.71016477  0.82162607  0.29059606     0.61300
H1778       H  0.72489100  0.86677058  0.30460087     0.08600
O1779       O  0.79546786  0.92256836  0.37999060    -0.40200
O1780       O  0.76227906  0.94492149  0.37279026    -0.39400
O1781       O  0.75698729  0.89074943  0.25400835    -0.39400
O1782       O  0.79752506  0.88946873  0.25472014    -0.37100
O1783       O  0.69657793  0.81395156  0.30817080    -0.38000
O1784       O  0.70014605  0.82841844  0.27030321    -0.34100
O1785       O  0.81570362  0.85265803  0.33510033    -0.35500
O1786       O  0.82483668  0.85422781  0.29533809    -0.39800
C1787       C  0.71811780  0.92058632  0.18279779    -0.13500
C1788       C  0.71234264  0.90684088  0.20439250     0.16900
C1789       C  0.70000578  0.91931172  0.22432202     0.03200
C1790       C  0.69170382  0.94411557  0.22132503    -0.12000
C1791       C  0.69623018  0.95716938  0.19914403    -0.03100
C1792       C  0.71051502  0.94565699  0.18023107     0.02400
C1793       C  0.71794609  0.87932378  0.20502326     0.09200
N1794       N  0.69582248  0.90722249  0.24777371     0.65600
H1795       H  0.68088324  0.95289114  0.23602663     0.18500
N1796       N  0.71660952  0.95910309  0.15794174     0.76100
H1797       H  0.72800909  0.91159978  0.16757109     0.10000
C1798       C  0.69880247  0.86149979  0.20764817     0.03700
C1799       C  0.70480502  0.83603619  0.21041314    -0.05000
C1800       C  0.72947491  0.82724315  0.20900472    -0.23400
C1801       C  0.74848693  0.84487862  0.20371722     0.13000
C1802       C  0.74250483  0.87065826  0.20219651    -0.12500
N1803       N  0.67312341  0.86882824  0.20658866     0.64600
H1804       H  0.68990034  0.82287557  0.21382706     0.12500
N1805       N  0.77389600  0.83730209  0.20048789     0.61300
H1806       H  0.75720291  0.88412369  0.19902743     0.08600
O1807       O  0.71002365  0.95080091  0.13678981    -0.40200
O1808       O  0.72866295  0.97932564  0.15937174    -0.39400
O1809       O  0.71093207  0.91115420  0.26549754    -0.39400
O1810       O  0.67419285  0.89980182  0.25294854    -0.37100
O1811       O  0.77917609  0.82095316  0.18422870    -0.38000
O1812       O  0.79115974  0.85069985  0.20936910    -0.34100
O1813       O  0.66536946  0.88231526  0.18879625    -0.35500
O1814       O  0.65759421  0.85911325  0.22129137    -0.39800
C1815       C  0.85576948  0.69119829  0.18559132    -0.13500
C1816       C  0.87322071  0.71057627  0.18537170     0.16900
C1817       C  0.86495171  0.73551116  0.18785528     0.03200
C1818       C  0.83969095  0.74046279  0.19248463    -0.12000
C1819       C  0.82259714  0.72078259  0.19513115    -0.03100
C1820       C  0.83069304  0.69609892  0.19053869     0.02400
C1821       C  0.89999082  0.70404859  0.18366148     0.09200
N1822       N  0.88234060  0.75568502  0.18826921     0.65600
H1823       H  0.83396057  0.75950058  0.19657367     0.18500
N1824       N  0.81372928  0.67569411  0.19145359     0.76100
H1825       H  0.86183192  0.67201560  0.18279160     0.10000
C1826       C  0.91202236  0.69108210  0.20326791     0.03700
C1827       C  0.93665158  0.68282448  0.20040118    -0.05000
C1828       C  0.94948709  0.68686225  0.17795753    -0.23400
C1829       C  0.93758609  0.70049084  0.15858983     0.13000
C1830       C  0.91308717  0.70908124  0.16165409    -0.12500
N1831       N  0.89909932  0.68553368  0.22590841     0.64600
H1832       H  0.94537923  0.67218479  0.21531052     0.12500
N1833       N  0.95005809  0.70551517  0.13558008     0.61300
H1834       H  0.90397990  0.71900359  0.14647851     0.08600
O1835       O  0.81813722  0.65768236  0.20606548    -0.40200
O1836       O  0.79855665  0.67278705  0.17359174    -0.39400
O1837       O  0.88408254  0.77006086  0.16966189    -0.39400
O1838       O  0.89498612  0.75999494  0.20777606    -0.37100
O1839       O  0.94432813  0.69319888  0.11619037    -0.38000
O1840       O  0.96230989  0.72550862  0.13340227    -0.34100
O1841       O  0.89986790  0.70071567  0.24404167    -0.35500
O1842       O  0.88857165  0.66461070  0.22850961    -0.39800
C1843       C  0.86536045  0.79829680  0.26693042    -0.13500
C1844       C  0.87819965  0.78778987  0.28714158     0.16900
C1845       C  0.86655318  0.76898557  0.30144910     0.03200
C1846       C  0.84284920  0.76014620  0.29435828    -0.12000
C1847       C  0.83009310  0.77055731  0.27382628    -0.03100
C1848       C  0.84142457  0.79050197  0.26058777     0.02400
C1849       C  0.90348767  0.79756504  0.29270063     0.09200
N1850       N  0.87799086  0.75959797  0.32377186     0.65600
H1851       H  0.83438846  0.74518126  0.30497242     0.18500
N1852       N  0.82856989  0.80385717  0.24124074     0.76100
H1853       H  0.87387418  0.81316770  0.25618785     0.10000
C1854       C  0.92498015  0.78251907  0.29058424     0.03700
C1855       C  0.94863876  0.79340366  0.29301744    -0.05000
C1856       C  0.95143127  0.81939708  0.29646099    -0.23400
C1857       C  0.92970406  0.83443717  0.29815318     0.13000
C1858       C  0.90619406  0.82332556  0.29691055    -0.12500
N1859       N  0.92315642  0.75658331  0.28414906     0.64600
H1860       H  0.96490752  0.78145920  0.29176913     0.12500
N1861       N  0.93103616  0.86118621  0.29950684     0.61300
H1862       H  0.88979659  0.83515621  0.29789319     0.08600
O1863       O  0.81054046  0.81788847  0.24695055    -0.40200
O1864       O  0.83797019  0.80542016  0.21968700    -0.39400
O1865       O  0.88149445  0.77416613  0.34210909    -0.39400
O1866       O  0.88049386  0.73629471  0.32679463    -0.37100
O1867       O  0.93905570  0.87337150  0.28102630    -0.38000
O1868       O  0.92060900  0.87270677  0.31729349    -0.34100
O1869       O  0.91777635  0.75044653  0.26193912    -0.35500
O1870       O  0.93157696  0.74023424  0.29896805    -0.39800
C1871       C  0.71385116  0.63802060  0.33232180    -0.13500
C1872       C  0.73391749  0.62186504  0.33671748     0.16900
C1873       C  0.75829598  0.63101095  0.33337060     0.03200
C1874       C  0.76197920  0.65502316  0.32282432    -0.12000
C1875       C  0.74152996  0.66976752  0.31509585    -0.03100
C1876       C  0.71747395  0.66172302  0.32176575     0.02400
C1877       C  0.72842948  0.59472866  0.34034559     0.09200
N1878       N  0.77924834  0.61513594  0.33806046     0.65600
H1879       H  0.78065998  0.66077979  0.31801119     0.18500
N1880       N  0.69628298  0.67703886  0.31671687     0.76100
H1881       H  0.69504028  0.63151836  0.33550645     0.10000
C1882       C  0.72547280  0.58401758  0.36421744     0.03700
C1883       C  0.71592803  0.55958997  0.36642069    -0.05000
C1884       C  0.70872204  0.54555012  0.34516368    -0.23400
C1885       C  0.71305995  0.55586349  0.32125616     0.13000
C1886       C  0.72294422  0.58012016  0.31909671    -0.12500
N1887       N  0.73088163  0.59809446  0.38639032     0.64600
H1888       H  0.71304880  0.55196223  0.38496257     0.12500
N1889       N  0.70546260  0.54296826  0.29902328     0.61300
H1890       H  0.72493653  0.58821340  0.30062953     0.08600
O1891       O  0.68128797  0.67079134  0.29956621    -0.40200
O1892       O  0.68948186  0.69265880  0.33307813    -0.39400
O1893       O  0.78595445  0.59940577  0.32172920    -0.39400
O1894       O  0.78857932  0.61418045  0.35976232    -0.37100
O1895       O  0.68277269  0.54276654  0.29284264    -0.38000
O1896       O  0.72162410  0.53573265  0.28351850    -0.34100
O1897       O  0.71582621  0.61471942  0.39370050    -0.35500
O1898       O  0.74814361  0.59100279  0.40083756    -0.39800
C1899       C  0.78567100  0.60302770  0.23105272    -0.13500
C1900       C  0.78576061  0.59710542  0.20562107     0.16900
C1901       C  0.77454277  0.61376479  0.18849125     0.03200
C1902       C  0.76462042  0.63673352  0.19702525    -0.12000
C1903       C  0.76677738  0.64375133  0.22238027    -0.03100
C1904       C  0.77619457  0.62587297  0.23950554     0.02400
C1905       C  0.79928320  0.57421207  0.19767031     0.09200
N1906       N  0.77462279  0.60832528  0.16229899     0.65600
H1907       H  0.75675187  0.64972006  0.18359386     0.18500
N1908       N  0.77507055  0.63003658  0.26581296     0.76100
H1909       H  0.79344179  0.58993079  0.24447383     0.10000
C1910       C  0.82548176  0.57417035  0.19684363     0.03700
C1911       C  0.83841111  0.55192180  0.19180275    -0.05000
C1912       C  0.82560249  0.52938818  0.18777547    -0.23400
C1913       C  0.79933739  0.52937686  0.18858436     0.13000
C1914       C  0.78638533  0.55171642  0.19370942    -0.12500
N1915       N  0.83916168  0.59662644  0.20155817     0.64600
H1916       H  0.85856378  0.55217382  0.19123529     0.12500
N1917       N  0.78565238  0.50693681  0.18361842     0.61300
H1918       H  0.76625243  0.55151961  0.19466248     0.08600
O1919       O  0.79500029  0.63247910  0.27815835    -0.40200
O1920       O  0.75515191  0.62490378  0.27705039    -0.39400
O1921       O  0.75656035  0.59683556  0.15244958    -0.39400
O1922       O  0.79355891  0.61330472  0.14937165    -0.37100
O1923       O  0.77268155  0.49716804  0.20060996    -0.38000
O1924       O  0.78694035  0.49653247  0.16239984    -0.34100
O1925       O  0.84731139  0.60125651  0.22328236    -0.35500
O1926       O  0.84211255  0.61239697  0.18429052    -0.39800
C1927       C  0.63693803  0.73271163  0.17568424    -0.13500
C1928       C  0.62988216  0.75803535  0.17674737     0.16900
C1929       C  0.64838124  0.77626081  0.18083887     0.03200
C1930       C  0.67285887  0.76893460  0.18608121    -0.12000
C1931       C  0.67940778  0.74349179  0.18825961    -0.03100
C1932       C  0.66156446  0.72533047  0.18102718     0.02400
C1933       C  0.60319518  0.76534450  0.17450063     0.09200
N1934       N  0.64230428  0.80232185  0.18126919     0.65600
H1935       H  0.68619805  0.78338166  0.19078364     0.18500
N1936       N  0.66798366  0.69935993  0.17957085     0.76100
H1937       H  0.62308700  0.71854347  0.17159956     0.10000
C1938       C  0.59041964  0.76406114  0.15147350     0.03700
C1939       C  0.56617584  0.77375529  0.14941357    -0.05000
C1940       C  0.55390283  0.78420529  0.17022727    -0.23400
C1941       C  0.56612175  0.78382384  0.19371115     0.13000
C1942       C  0.59062980  0.77467839  0.19559222    -0.12500
N1943       N  0.60215325  0.75368493  0.12984260     0.64600
H1944       H  0.55702119  0.77359796  0.13128371     0.12500
N1945       N  0.55439193  0.79367282  0.21558461     0.61300
H1946       H  0.60009379  0.77528723  0.21355485     0.08600
O1947       O  0.67852822  0.69105415  0.16017314    -0.40200
O1948       O  0.65950299  0.68416984  0.19541763    -0.39400
O1949       O  0.63626746  0.81249646  0.20172082    -0.39400
O1950       O  0.64831722  0.81591664  0.16299850    -0.37100
O1951       O  0.54462513  0.77880393  0.23098489    -0.38000
O1952       O  0.55860694  0.81598965  0.22215149    -0.34100
O1953       O  0.59908111  0.73085656  0.12451060    -0.35500
O1954       O  0.61269162  0.76791274  0.11436620    -0.39800
C1955       C  0.55989794  0.71254834  0.28803306    -0.13500
C1956       C  0.58192456  0.69878376  0.28577321     0.16900
C1957       C  0.58160638  0.67264532  0.28905965     0.03200
C1958       C  0.55928056  0.66065123  0.29462690    -0.12000
C1959       C  0.53710724  0.67432050  0.29756335    -0.03100
C1960       C  0.53750948  0.70059773  0.29395842     0.02400
C1961       C  0.60525721  0.71152611  0.27943172     0.09200
N1962       N  0.60401372  0.65818315  0.28759399     0.65600
H1963       H  0.55937589  0.64051337  0.29714267     0.18500
N1964       N  0.51573444  0.71560281  0.29729204     0.76100
H1965       H  0.56015131  0.73267132  0.28542423     0.10000
C1966       C  0.61611603  0.70766514  0.25582423     0.03700
C1967       C  0.64066177  0.71477878  0.25202426    -0.05000
C1968       C  0.65411970  0.72681400  0.27096335    -0.23400
C1969       C  0.64248686  0.73339772  0.29351931     0.13000
C1970       C  0.61817019  0.72512076  0.29793692    -0.12500
N1971       N  0.60234408  0.69671203  0.23560308     0.64600
H1972       H  0.64932102  0.71099027  0.23415740     0.12500
N1973       N  0.65504311  0.74842547  0.31177936     0.61300
H1974       H  0.60960776  0.72869128  0.31593413     0.08600
O1975       O  0.50543405  0.72536330  0.27839513    -0.40200
O1976       O  0.51070871  0.72394591  0.31882009    -0.39400
O1977       O  0.61970962  0.65920693  0.30522120    -0.39400
O1978       O  0.60638118  0.64176666  0.27071282    -0.37100
O1979       O  0.65260877  0.77192532  0.31128337    -0.38000
O1980       O  0.66602191  0.73826576  0.33003357    -0.34100
O1981       O  0.58536645  0.70930102  0.22511270    -0.35500
O1982       O  0.61029976  0.67707398  0.22511236    -0.39800
C1983       C  0.86141835  0.32135741  0.76589150    -0.13500
C1984       C  0.88240456  0.30937737  0.75561432     0.16900
C1985       C  0.87860085  0.29124392  0.73669245     0.03200
C1986       C  0.85432291  0.28356017  0.73027749    -0.12000
C1987       C  0.83335594  0.29415108  0.74192793    -0.03100
C1988       C  0.83706120  0.31429964  0.75873698     0.02400
C1989       C  0.90785789  0.31346439  0.76668342     0.09200
N1990       N  0.89941238  0.28013437  0.72424501     0.65600
H1991       H  0.85192668  0.26865449  0.71672125     0.18500
N1992       N  0.81620560  0.32831562  0.76778826     0.76100
H1993       H  0.86393617  0.33588294  0.77987808     0.10000
C1994       C  0.91949881  0.33715080  0.76732605     0.03700
C1995       C  0.94281243  0.34008044  0.77923892    -0.05000
C1996       C  0.95521289  0.31961728  0.79033141    -0.23400
C1997       C  0.94376059  0.29588122  0.78919180     0.13000
C1998       C  0.92044010  0.29301765  0.77750410    -0.12500
N1999       N  0.90833692  0.35817479  0.75515342     0.64600
H2000       H  0.95134880  0.35844093  0.77972368     0.12500
N2001       N  0.95485919  0.27476630  0.80126408     0.61300
H2002       H  0.91172138  0.27473445  0.77753210     0.08600
O2003       O  0.81398487  0.33283348  0.79086554    -0.40200
O2004       O  0.80176749  0.33892108  0.75238520    -0.39400
O2005       O  0.91495919  0.29377395  0.71309420    -0.39400
O2006       O  0.90352312  0.25697921  0.72632324    -0.37100
O2007       O  0.95247797  0.27194943  0.82458338    -0.38000
O2008       O  0.96454217  0.25755213  0.78831354    -0.34100
O2009       O  0.89894341  0.37557988  0.76808062    -0.35500
O2010       O  0.91192193  0.36148266  0.73206110    -0.39800
C2011       C  0.87600769  0.19409539  0.75309722    -0.13500
C2012       C  0.88165480  0.19889323  0.72772483     0.16900
C2013       C  0.86347887  0.21172235  0.71323364     0.03200
C2014       C  0.84056559  0.21831569  0.72376212    -0.12000
C2015       C  0.83524305  0.21438865  0.74917030    -0.03100
C2016       C  0.85343783  0.20227682  0.76398941     0.02400
C2017       C  0.90552569  0.18952089  0.71592028     0.09200
N2018       N  0.86811411  0.21916761  0.68790809     0.65600
H2019       H  0.82725736  0.22806195  0.71197900     0.18500
N2020       N  0.84908895  0.19748882  0.78988793     0.76100
H2021       H  0.88888066  0.18353427  0.76456696     0.10000
C2022       C  0.92923423  0.19175378  0.72742966     0.03700
C2023       C  0.95093234  0.18492537  0.71428363    -0.05000
C2024       C  0.95007867  0.17632917  0.68928080    -0.23400
C2025       C  0.92618796  0.17335771  0.67813956     0.13000
C2026       C  0.90458416  0.17884745  0.69182267    -0.12500
N2027       N  0.93189833  0.20125870  0.75232075     0.64600
H2028       H  0.96865387  0.18656294  0.72387454     0.12500
N2029       N  0.92320911  0.16653795  0.65238295     0.61300
H2030       H  0.88673644  0.17571525  0.68286865     0.08600
O2031       O  0.85991593  0.21061338  0.80631566    -0.40200
O2032       O  0.83795153  0.17775636  0.79627188    -0.39400
O2033       O  0.85224308  0.21444375  0.67107482    -0.39400
O2034       O  0.88602434  0.23355435  0.68302416    -0.37100
O2035       O  0.92965726  0.18174946  0.63560011    -0.38000
O2036       O  0.90963872  0.14812001  0.64658071    -0.34100
O2037       O  0.93699027  0.18629262  0.76987021    -0.35500
O2038       O  0.93527372  0.22439824  0.75562079    -0.39800
C2039       C  0.73312732  0.17777541  0.92986075    -0.13500
C2040       C  0.71992532  0.19175373  0.91191768     0.16900
C2041       C  0.69601518  0.20088337  0.91813426     0.03200
C2042       C  0.68572247  0.19572746  0.94167900    -0.12000
C2043       C  0.69888284  0.18184093  0.95964310    -0.03100
C2044       C  0.72282149  0.17280091  0.95357083     0.02400
C2045       C  0.73167993  0.19803366  0.88740211     0.09200
N2046       N  0.68170757  0.21513121  0.90060737     0.65600
H2047       H  0.66721201  0.20257012  0.94595643     0.18500
N2048       N  0.73653289  0.15788786  0.97098618     0.76100
H2049       H  0.75154455  0.17078104  0.92547269     0.10000
C2050       C  0.74310442  0.22144993  0.88411745     0.03700
C2051       C  0.75015318  0.22916532  0.86013357    -0.05000
C2052       C  0.74668538  0.21371607  0.83893806    -0.23400
C2053       C  0.73772586  0.18920584  0.84256161     0.13000
C2054       C  0.72989022  0.18165938  0.86667180    -0.12500
N2055       N  0.74691390  0.23792430  0.90496307     0.64600
H2056       H  0.75738673  0.24796620  0.85786015     0.12500
N2057       N  0.73421625  0.17280754  0.82167283     0.61300
H2058       H  0.72141563  0.16343362  0.86899820     0.08600
O2059       O  0.75246699  0.16809751  0.98509670    -0.40200
O2060       O  0.73591460  0.13433015  0.96917210    -0.39400
O2061       O  0.66357406  0.20485753  0.88958536    -0.39400
O2062       O  0.68301322  0.23871949  0.90110982    -0.37100
O2063       O  0.75266828  0.16171536  0.81216637    -0.38000
O2064       O  0.71307110  0.17089984  0.81149300    -0.34100
O2065       O  0.76387406  0.23326206  0.92070573    -0.35500
O2066       O  0.73482204  0.25814988  0.90653707    -0.39800
C2067       C  0.76798092  0.31488501  0.87281680    -0.13500
C2068       C  0.79296847  0.31057139  0.87940122     0.16900
C2069       C  0.80992623  0.30360618  0.86063840     0.03200
C2070       C  0.80151258  0.29939460  0.83619082    -0.12000
C2071       C  0.77619923  0.30178831  0.82977967    -0.03100
C2072       C  0.75944131  0.31041678  0.84822116     0.02400
C2073       C  0.80099313  0.31163746  0.90604943     0.09200
N2074       N  0.83560623  0.29953799  0.86643395     0.65600
H2075       H  0.81463405  0.29234850  0.82248485     0.18500
N2076       N  0.73336722  0.31183418  0.84313105     0.76100
H2077       H  0.75477513  0.32023166  0.88715738     0.10000
C2078       C  0.80262303  0.33452456  0.91907196     0.03700
C2079       C  0.81206065  0.33498613  0.94357683    -0.05000
C2080       C  0.82038672  0.31297643  0.95541159    -0.23400
C2081       C  0.81747939  0.28987488  0.94284544     0.13000
C2082       C  0.80777588  0.28938941  0.91837088    -0.12500
N2083       N  0.79617447  0.35760136  0.90715215     0.64600
H2084       H  0.81400279  0.35287319  0.95304246     0.12500
N2085       N  0.82567764  0.26699639  0.95401192     0.61300
H2086       H  0.80623196  0.27162090  0.90861766     0.08600
O2087       O  0.72363657  0.33270852  0.83790057    -0.40200
O2088       O  0.71958114  0.29353824  0.84849582    -0.39400
O2089       O  0.84342923  0.27756570  0.87022720    -0.39400
O2090       O  0.85101205  0.31702231  0.86327440    -0.37100
O2091       O  0.80988700  0.25197730  0.96278467    -0.38000
O2092       O  0.84790321  0.25990148  0.95119948    -0.34100
O2093       O  0.77959811  0.37148530  0.91652509    -0.35500
O2094       O  0.80943515  0.36577751  0.88954681    -0.39800
C2095       C  0.57671152  0.21640498  0.80903165    -0.13500
C2096       C  0.59188630  0.19508675  0.80617861     0.16900
C2097       C  0.58177634  0.17132751  0.81130710     0.03200
C2098       C  0.55711634  0.16938195  0.81960648    -0.12000
C2099       C  0.54223544  0.19077052  0.82359315    -0.03100
C2100       C  0.55209015  0.21444056  0.81764344     0.02400
C2101       C  0.61859810  0.19837162  0.79950884     0.09200
N2102       N  0.59680626  0.14921198  0.81002840     0.65600
H2103       H  0.54991688  0.15104162  0.82428537     0.18500
N2104       N  0.53801008  0.23674470  0.82189187     0.76100
H2105       H  0.58432129  0.23478870  0.80529378     0.10000
C2106       C  0.62833979  0.19142902  0.77592783     0.03700
C2107       C  0.65345988  0.19675408  0.77016415    -0.05000
C2108       C  0.66889593  0.20944387  0.78742938    -0.23400
C2109       C  0.65915592  0.21502019  0.81139267     0.13000
C2110       C  0.63441409  0.20945078  0.81716805    -0.12500
N2111       N  0.61252422  0.18062883  0.75714046     0.64600
H2112       H  0.66019633  0.19295543  0.75143837     0.12500
N2113       N  0.67408065  0.22713394  0.82997260     0.61300
H2114       H  0.62729404  0.21438983  0.83550074     0.08600
O2115       O  0.52704247  0.24717166  0.80375538    -0.40200
O2116       O  0.54059446  0.24849231  0.84227713    -0.39400
O2117       O  0.61381265  0.14584520  0.82605744    -0.39400
O2118       O  0.59007533  0.13116086  0.79628609    -0.37100
O2119       O  0.66879544  0.24910054  0.83695099    -0.38000
O2120       O  0.68912577  0.21428388  0.84273637    -0.34100
O2121       O  0.59286940  0.19176557  0.75039150    -0.35500
O2122       O  0.61845932  0.16019436  0.74681578    -0.39800
C2123       C  0.63262816  0.32468999  0.73392714    -0.13500
C2124       C  0.61333450  0.30698867  0.73148901     0.16900
C2125       C  0.61797966  0.28204786  0.73845963     0.03200
C2126       C  0.64171915  0.27494375  0.74645322    -0.12000
C2127       C  0.66172537  0.29198980  0.74704142    -0.03100
C2128       C  0.65668902  0.31744220  0.74201977     0.02400
C2129       C  0.58977525  0.31329859  0.71812413     0.09200
N2130       N  0.59953190  0.26308484  0.73486175     0.65600
H2131       H  0.64484682  0.25533403  0.75069411     0.18500
N2132       N  0.67600636  0.33570861  0.74333947     0.76100
H2133       H  0.62925544  0.34396000  0.72857581     0.10000
C2134       C  0.56656795  0.31418476  0.73037035     0.03700
C2135       C  0.54440797  0.31579784  0.71626693    -0.05000
C2136       C  0.54489274  0.31647378  0.68992721    -0.23400
C2137       C  0.56827540  0.31541370  0.67777830     0.13000
C2138       C  0.59029528  0.31421723  0.69194597    -0.12500
N2139       N  0.56528471  0.31402359  0.75709678     0.64600
H2140       H  0.52678943  0.31714114  0.72596647     0.12500
N2141       N  0.56997503  0.31418224  0.65103672     0.61300
H2142       H  0.60797071  0.31257049  0.68236772     0.08600
O2143       O  0.68148997  0.34549453  0.76418279    -0.40200
O2144       O  0.68438555  0.34514159  0.72346415    -0.39400
O2145       O  0.59603472  0.25406888  0.71325254    -0.39400
O2146       O  0.59056647  0.25202524  0.75359849    -0.37100
O2147       O  0.58544178  0.32775801  0.63970119    -0.38000
O2148       O  0.55895411  0.29692010  0.63922916    -0.34100
O2149       O  0.56891731  0.33408194  0.76911833    -0.35500
O2150       O  0.55617583  0.29536525  0.76819009    -0.39800
C2151       C  0.71793711  0.33331992  0.58998905    -0.13500
C2152       C  0.71213469  0.30972173  0.59998311     0.16900
C2153       C  0.69896277  0.29249126  0.58456558     0.03200
C2154       C  0.69081521  0.29959891  0.56059199    -0.12000
C2155       C  0.69544288  0.32357259  0.55126754    -0.03100
C2156       C  0.70998222  0.34020464  0.56580509     0.02400
C2157       C  0.71813751  0.30420578  0.62689921     0.09200
N2158       N  0.69417422  0.26740070  0.59242584     0.65600
H2159       H  0.67989724  0.28652482  0.54954984     0.18500
N2160       N  0.71716266  0.36397671  0.55600897     0.76100
H2161       H  0.72823339  0.34672057  0.60121429     0.10000
C2162       C  0.74247666  0.30581037  0.63707409     0.03700
C2163       C  0.74682914  0.30002315  0.66254419    -0.05000
C2164       C  0.72737544  0.29198524  0.67811618    -0.23400
C2165       C  0.70297169  0.29137921  0.66799033     0.13000
C2166       C  0.69860020  0.29826998  0.64306362    -0.12500
N2167       N  0.76315583  0.31185189  0.62151325     0.64600
H2168       H  0.76576168  0.30000985  0.66961861     0.12500
N2169       N  0.68228421  0.28311526  0.68249726     0.61300
H2170       H  0.67963268  0.29844944  0.63614428     0.08600
O2171       O  0.73418620  0.36507914  0.53985295    -0.40200
O2172       O  0.70930881  0.38387061  0.56607813    -0.39400
O2173       O  0.67540107  0.26306311  0.60581098    -0.39400
O2174       O  0.70315142  0.24971839  0.57959510    -0.37100
O2175       O  0.66557050  0.29873248  0.68813342    -0.38000
O2176       O  0.67710874  0.26007211  0.68284013    -0.34100
O2177       O  0.77398097  0.33263628  0.62422328    -0.35500
O2178       O  0.77329183  0.29489231  0.60855999    -0.39800
C2179       C  0.77980108  0.17403139  0.65360597    -0.13500
C2180       C  0.77105814  0.18673133  0.63227284     0.16900
C2181       C  0.75456182  0.20694526  0.63522327     0.03200
C2182       C  0.74830716  0.21525202  0.65919957    -0.12000
C2183       C  0.75782587  0.20334700  0.68064370    -0.03100
C2184       C  0.77300068  0.18202183  0.67777347     0.02400
C2185       C  0.78077554  0.18034045  0.60713013     0.09200
N2186       N  0.74488112  0.21986264  0.61394146     0.65600
H2187       H  0.73682547  0.23187603  0.66108864     0.18500
N2188       N  0.78253992  0.16910728  0.69912878     0.76100
H2189       H  0.79241924  0.15831702  0.65147969     0.10000
C2190       C  0.80512465  0.18713977  0.60034571     0.03700
C2191       C  0.81393758  0.18153350  0.57642268    -0.05000
C2192       C  0.79862975  0.16983187  0.55868834    -0.23400
C2193       C  0.77402256  0.16354022  0.56508551     0.13000
C2194       C  0.76533431  0.16860776  0.58934840    -0.12500
N2195       N  0.82097929  0.20026062  0.61738807     0.64600
H2196       H  0.83284426  0.18653854  0.57155067     0.12500
N2197       N  0.75790192  0.15166518  0.54733905     0.61300
H2198       H  0.74648969  0.16351329  0.59429713     0.08600
O2199       O  0.80478556  0.17250364  0.70594240    -0.40200
O2200       O  0.77036570  0.15111842  0.70815302    -0.39400
O2201       O  0.75678189  0.23791772  0.60467195    -0.39400
O2202       O  0.72639489  0.21093685  0.60237917    -0.37100
O2203       O  0.75384941  0.12845897  0.54891824    -0.38000
O2204       O  0.74451189  0.16489577  0.53308219    -0.34100
O2205       O  0.84012533  0.18943365  0.62583700    -0.35500
O2206       O  0.81917102  0.22377175  0.61915070    -0.39800
C2207       C  0.28876422  0.76106783  0.88475523    -0.13500
C2208       C  0.29553288  0.78605377  0.88938546     0.16900
C2209       C  0.29671572  0.80290837  0.86920718     0.03200
C2210       C  0.28892883  0.79530048  0.84535499    -0.12000
C2211       C  0.28167490  0.77052699  0.84074565    -0.03100
C2212       C  0.28210609  0.75313085  0.86054909     0.02400
C2213       C  0.30076215  0.79439439  0.91539308     0.09200
N2214       N  0.30638950  0.82758965  0.87254436     0.65600
H2215       H  0.28858331  0.80882590  0.83026986     0.18500
N2216       N  0.27401531  0.72792997  0.85675959     0.76100
H2217       H  0.28799742  0.74787189  0.90011052     0.10000
C2218       C  0.28569531  0.81242402  0.92759347     0.03700
C2219       C  0.29148847  0.82004066  0.95202115    -0.05000
C2220       C  0.31199681  0.80993729  0.96459973    -0.23400
C2221       C  0.32686796  0.79175343  0.95271454     0.13000
C2222       C  0.32120246  0.78414287  0.92821859    -0.12500
N2223       N  0.26403766  0.82268223  0.91585826     0.64600
H2224       H  0.28019335  0.83425594  0.96105306     0.12500
N2225       N  0.34796141  0.78120701  0.96530170     0.61300
H2226       H  0.33285737  0.77028817  0.91910516     0.08600
O2227       O  0.25180383  0.72204610  0.86147544    -0.40200
O2228       O  0.28981649  0.71096984  0.85241126    -0.39400
O2229       O  0.32915392  0.83047619  0.87767679    -0.39400
O2230       O  0.29355108  0.84621681  0.86586680    -0.37100
O2231       O  0.34513014  0.76925738  0.98544139    -0.38000
O2232       O  0.36957750  0.78496468  0.95702730    -0.34100
O2233       O  0.24337009  0.81240179  0.91990147    -0.35500
O2234       O  0.26425897  0.84530089  0.90910556    -0.39800
C2235       C  0.16171456  0.73471773  0.84850467    -0.13500
C2236       C  0.17237201  0.74740433  0.86905267     0.16900
C2237       C  0.18805266  0.76790890  0.86436979     0.03200
C2238       C  0.19582342  0.77294623  0.83995885    -0.12000
C2239       C  0.18811686  0.75793050  0.81981071    -0.03100
C2240       C  0.16903812  0.74016214  0.82367690     0.02400
C2241       C  0.17047171  0.73667332  0.89478616     0.09200
N2242       N  0.19841411  0.78207525  0.88453371     0.65600
H2243       H  0.21025269  0.78681587  0.83719671     0.18500
N2244       N  0.15761229  0.72725698  0.80282808     0.76100
H2245       H  0.14895035  0.71946816  0.85195144     0.10000
C2246       C  0.14749638  0.73289301  0.90672180     0.03700
C2247       C  0.14665360  0.72053384  0.92989467    -0.05000
C2248       C  0.16843574  0.71154843  0.94169602    -0.23400
C2249       C  0.19154084  0.71593058  0.92991436     0.13000
C2250       C  0.19228737  0.72827067  0.90675709    -0.12500
N2251       N  0.12488316  0.74174580  0.89568382     0.64600
H2252       H  0.12873957  0.71791771  0.93872226     0.12500
N2253       N  0.21430988  0.70658716  0.94024283     0.61300
H2254       H  0.21006536  0.73034384  0.89751952     0.08600
O2255       O  0.14133887  0.71067960  0.80656315    -0.40200
O2256       O  0.16103436  0.73475958  0.78071000    -0.39400
O2257       O  0.18695745  0.80106036  0.89267560    -0.39400
O2258       O  0.22080606  0.77852381  0.89073294    -0.37100
O2259       O  0.22039635  0.68405064  0.93649987    -0.38000
O2260       O  0.23034415  0.72178203  0.94851192    -0.34100
O2261       O  0.10903325  0.72626672  0.88760968    -0.35500
O2262       O  0.11896056  0.76452219  0.89792331    -0.39800
C2263       C  0.18730550  0.86790526  0.71772271    -0.13500
C2264       C  0.18728419  0.88804200  0.73449482     0.16900
C2265       C  0.19347396  0.88353355  0.75978194     0.03200
C2266       C  0.20184678  0.85967584  0.76713499    -0.12000
C2267       C  0.20398150  0.83987642  0.74971721    -0.03100
C2268       C  0.19580620  0.84418927  0.72478194     0.02400
C2269       C  0.18112459  0.91341405  0.72473016     0.09200
N2270       N  0.19201334  0.90307619  0.77806745     0.65600
H2271       H  0.20759593  0.85698464  0.78641606     0.18500
N2272       N  0.19695573  0.82526629  0.70584000     0.76100
H2273       H  0.18097575  0.87070265  0.69864677     0.10000
C2274       C  0.19462021  0.92384317  0.70458164     0.03700
C2275       C  0.18725449  0.94673391  0.69425472    -0.05000
C2276       C  0.16616407  0.95929153  0.70300652    -0.23400
C2277       C  0.15284203  0.94927210  0.72329163     0.13000
C2278       C  0.16049183  0.92657088  0.73413971    -0.12500
N2279       N  0.21548231  0.91117460  0.69382617     0.64600
H2280       H  0.19733060  0.95410180  0.67836098     0.12500
N2281       N  0.13117513  0.96166184  0.73258618     0.61300
H2282       H  0.14966963  0.91870342  0.74924529     0.08600
O2283       O  0.20896522  0.82954120  0.68604610    -0.40200
O2284       O  0.18123743  0.80775225  0.70599089    -0.39400
O2285       O  0.17379321  0.90375913  0.79287416    -0.39400
O2286       O  0.21083553  0.91645642  0.78254601    -0.37100
O2287       O  0.10986194  0.95406336  0.72616567    -0.38000
O2288       O  0.13327031  0.97781458  0.74976238    -0.34100
O2289       O  0.21203045  0.89699826  0.67517792    -0.35500
O2290       O  0.23694046  0.91989785  0.69762524    -0.39800
C2291       C  0.31908331  0.86261686  0.77797448    -0.13500
C2292       C  0.30611972  0.88394388  0.76950615     0.16900
C2293       C  0.28796004  0.88072171  0.75059660     0.03200
C2294       C  0.28161731  0.85655193  0.74215301    -0.12000
C2295       C  0.29321691  0.83511087  0.75207044    -0.03100
C2296       C  0.31290959  0.83843066  0.76936687     0.02400
C2297       C  0.31040996  0.90893497  0.78189306     0.09200
N2298       N  0.27435989  0.90167998  0.74122422     0.65600
H2299       H  0.26611890  0.85448565  0.72924140     0.18500
N2300       N  0.32685957  0.81737858  0.77822462     0.76100
H2301       H  0.33380027  0.86471716  0.79175126     0.10000
C2302       C  0.30784243  0.91174972  0.80804577     0.03700
C2303       C  0.31275349  0.93481137  0.81965575    -0.05000
C2304       C  0.32038961  0.95578526  0.80589113    -0.23400
C2305       C  0.32265380  0.95324967  0.77962675     0.13000
C2306       C  0.31764249  0.93001741  0.76791195    -0.12500
N2307       N  0.30073436  0.89111941  0.82330865     0.64600
H2308       H  0.31072282  0.93627482  0.83979714     0.12500
N2309       N  0.33165950  0.97349997  0.76481426     0.61300
H2310       H  0.32047385  0.92820992  0.74793285     0.08600
O2311       O  0.32819306  0.81299199  0.80139371    -0.40200
O2312       O  0.34143821  0.80616352  0.76348137    -0.39400
O2313       O  0.28216170  0.91314746  0.72220940    -0.39400
O2314       O  0.25302785  0.90653945  0.74972712    -0.37100
O2315       O  0.31763452  0.98353515  0.74868249    -0.38000
O2316       O  0.35448023  0.97898557  0.76539851    -0.34100
O2317       O  0.31618932  0.88217065  0.83873333    -0.35500
O2318       O  0.27825548  0.88439779  0.82406516    -0.39800
C2319       C  0.27063372  0.69954968  0.63554417    -0.13500
C2320       C  0.28842205  0.71341852  0.62246896     0.16900
C2321       C  0.29934773  0.73427759  0.63459179     0.03200
C2322       C  0.29305450  0.74015983  0.65957710    -0.12000
C2323       C  0.27544399  0.72596291  0.67284947    -0.03100
C2324       C  0.26381071  0.70568437  0.66008861     0.02400
C2325       C  0.29485813  0.70544655  0.59630113     0.09200
N2326       N  0.31672885  0.74978934  0.62178714     0.65600
H2327       H  0.30159045  0.75631719  0.66839483     0.18500
N2328       N  0.24335409  0.69242868  0.67072576     0.76100
H2329       H  0.26118812  0.68418126  0.62623518     0.10000
C2330       C  0.30161012  0.68036141  0.59121062     0.03700
C2331       C  0.30544628  0.67234687  0.56658148    -0.05000
C2332       C  0.30381036  0.68893940  0.54631554    -0.23400
C2333       C  0.29691088  0.71406500  0.55116448     0.13000
C2334       C  0.29220311  0.72201146  0.57595630    -0.12500
N2335       N  0.30554655  0.66283299  0.61100246     0.64600
H2336       H  0.31050722  0.65294100  0.56336803     0.12500
N2337       N  0.29562494  0.73193138  0.53133484     0.61300
H2338       H  0.28644715  0.74117497  0.57928052     0.08600
O2339       O  0.24623645  0.67004868  0.67767166    -0.40200
O2340       O  0.22161217  0.70081444  0.66757447    -0.39400
O2341       O  0.30976692  0.77077982  0.61347068    -0.39400
O2342       O  0.33964390  0.74472050  0.62288019    -0.37100
O2343       O  0.31521099  0.74245495  0.52384670    -0.38000
O2344       O  0.27474305  0.73932347  0.52334444    -0.34100
O2345       O  0.29337936  0.64264919  0.61120230    -0.35500
O2346       O  0.32437589  0.66512929  0.62501556    -0.39800
C2347       C  0.18197742  0.75692735  0.62973097    -0.13500
C2348       C  0.19488749  0.77221126  0.61270152     0.16900
C2349       C  0.21548813  0.78610738  0.62141784     0.03200
C2350       C  0.22365080  0.78329727  0.64606785    -0.12000
C2351       C  0.21075549  0.76835654  0.66333546    -0.03100
C2352       C  0.18943289  0.75530562  0.65504640     0.02400
C2353       C  0.18607237  0.77502339  0.58632191     0.09200
N2354       N  0.22723300  0.80458698  0.60606384     0.65600
H2355       H  0.23989393  0.79381149  0.65193795     0.18500
N2356       N  0.17412607  0.74206905  0.67233885     0.76100
H2357       H  0.16559947  0.74683279  0.62351580     0.10000
C2358       C  0.20255305  0.77279419  0.56585855     0.03700
C2359       C  0.19540720  0.78186871  0.54222537    -0.05000
C2360       C  0.17135671  0.79141777  0.53789791    -0.23400
C2361       C  0.15392442  0.79043151  0.55782136     0.13000
C2362       C  0.16166572  0.78309534  0.58183374    -0.12500
N2363       N  0.22658966  0.76143105  0.56887744     0.64600
H2364       H  0.20899515  0.78177693  0.52733667     0.12500
N2365       N  0.12818377  0.79630065  0.55396982     0.61300
H2366       H  0.14858976  0.78412348  0.59719413     0.08600
O2367       O  0.17134027  0.71871663  0.67008194    -0.40200
O2368       O  0.15986352  0.75422230  0.68665317    -0.39400
O2369       O  0.21450869  0.82247376  0.59733281    -0.39400
O2370       O  0.25066714  0.80553738  0.60490110    -0.37100
O2371       O  0.11507205  0.78232314  0.54014605    -0.38000
O2372       O  0.11767584  0.81243552  0.56767614    -0.34100
O2373       O  0.22854180  0.74043095  0.57951402    -0.35500
O2374       O  0.24535331  0.77073824  0.55829141    -0.39800
C2375       C  0.28460763  0.58589950  0.69616535    -0.13500
C2376       C  0.30020555  0.59590294  0.71488210     0.16900
C2377       C  0.31841254  0.58017878  0.72579471     0.03200
C2378       C  0.32162678  0.55556271  0.71694169    -0.12000
C2379       C  0.30685800  0.54603074  0.69736364    -0.03100
C2380       C  0.28789279  0.56131260  0.68727307     0.02400
C2381       C  0.29662070  0.62243628  0.72326348     0.09200
N2382       N  0.33470288  0.58936351  0.74493378     0.65600
H2383       H  0.33659414  0.54421699  0.72453909     0.18500
N2384       N  0.27283881  0.55264641  0.66691761     0.76100
H2385       H  0.26997137  0.59736632  0.68813981     0.10000
C2386       C  0.29778767  0.64265871  0.70630736     0.03700
C2387       C  0.29155678  0.66704046  0.71416369    -0.05000
C2388       C  0.28453538  0.67191627  0.73896561    -0.23400
C2389       C  0.28486601  0.65190942  0.75628959     0.13000
C2390       C  0.29067609  0.62751033  0.74830990    -0.12500
N2391       N  0.30538780  0.63870155  0.68103396     0.64600
H2392       H  0.29171869  0.68212168  0.70068805     0.12500
N2393       N  0.27719839  0.65562572  0.78161583     0.61300
H2394       H  0.28964193  0.61228376  0.76162336     0.08600
O2395       O  0.27813562  0.55894399  0.64482212    -0.40200
O2396       O  0.25210863  0.54258171  0.67132295    -0.39400
O2397       O  0.33361279  0.58034989  0.76671672    -0.39400
O2398       O  0.35248825  0.60359470  0.73921617    -0.37100
O2399       O  0.29285290  0.66284324  0.79775946    -0.38000
O2400       O  0.25652808  0.64711438  0.78868193    -0.34100
O2401       O  0.28919674  0.63640367  0.66401863    -0.35500
O2402       O  0.32790606  0.64170109  0.67522345    -0.39800
C2403       C  0.19380783  0.63219392  0.78548076    -0.13500
C2404       C  0.19233656  0.61601962  0.76490327     0.16900
C2405       C  0.19302392  0.62599112  0.74053525     0.03200
C2406       C  0.19660255  0.65181119  0.73713237    -0.12000
C2407       C  0.19945241  0.66795128  0.75780426    -0.03100
C2408       C  0.19730538  0.65792111  0.78228174     0.02400
C2409       C  0.18897186  0.58896783  0.76972439     0.09200
N2410       N  0.19114887  0.60998917  0.71913514     0.65600
H2411       H  0.19851572  0.65900258  0.71828220     0.18500
N2412       N  0.19855407  0.67343445  0.80420126     0.76100
H2413       H  0.19255687  0.62469271  0.80427794     0.10000
C2414       C  0.20867519  0.57398976  0.77876040     0.03700
C2415       C  0.20392558  0.54957492  0.78713985    -0.05000
C2416       C  0.17963642  0.53979948  0.78687238    -0.23400
C2417       C  0.16015817  0.55462367  0.77683005     0.13000
C2418       C  0.16498338  0.57896621  0.76846339    -0.12500
N2419       N  0.23341633  0.58366193  0.78029020     0.64600
H2420       H  0.21909189  0.53866985  0.79496887     0.12500
N2421       N  0.13529618  0.54530732  0.77518368     0.61300
H2422       H  0.14974632  0.59042676  0.76161114     0.08600
O2423       O  0.17951528  0.67535579  0.81780263    -0.40200
O2424       O  0.21950622  0.67858485  0.81363450    -0.39400
O2425       O  0.17019482  0.60634337  0.70903170    -0.39400
O2426       O  0.21063639  0.60312218  0.70792642    -0.37100
O2427       O  0.12998029  0.52882197  0.75905911    -0.38000
O2428       O  0.11803488  0.55630195  0.78684293    -0.34100
O2429       O  0.24123680  0.59288996  0.80063175    -0.35500
O2430       O  0.24857728  0.57918449  0.76286003    -0.39800
loop_ 
_geom_bond_atom_site_label_1 
_geom_bond_atom_site_label_2 
_geom_bond_distance 
_geom_bond_site_symmetry_2 
_ccdc_geom_bond_type 
O1            C9   1.271       .  A
O1          Co21   1.971       .  S
O2           C10   1.266       .  A
O2          Co22   2.014       .  S
O3           C11   1.287       .  A
O3          Co23   2.042       .  S
O4           C12   1.270       .  A
O4          Co24   1.985       .  S
O5           C11   1.268       .  A
O5          Co22   1.998       .  S
O6           C12   1.275       .  A
O6          Co21   1.994       .  S
O7           C10   1.257       .  A
O7          Co24   1.983       .  S
O8            C9   1.294       .  A
O8          Co23   2.076       .  S
C9         C2388   1.488       .  S
C10        C2295   1.491       .  S
C11        C2323   1.502       .  S
C12        C2211   1.472       .  S
O13          C26   1.262       .  A
O13         Co21   1.986       .  S
O14          C27   1.269       .  A
O14         Co22   1.846       .  S
O15          C28   1.274       .  A
O15         Co23   1.918       .  S
O16          C29   1.276       .  A
O16         Co24   1.883       .  S
O17          C29   1.304       .  A
O17         Co22   2.100       .  S
O18          C28   1.288       .  A
O18         Co21   2.059       .  S
O19          C26   1.264       .  A
O19         Co24   2.003       .  S
O20          C27   1.311       .  A
O20         Co23   2.140       .  S
Co21         O25   2.092       .  S
Co22         O25   1.987       .  S
Co23         O25   1.981       .  S
Co24         O25   1.903       .  S
C26        C2239   1.476       .  S
C27        C2351   1.489       .  S
C28        C2407   1.481       .  S
C29        C2267   1.496       .  S
O30          C38   1.272       .  A
O30         Co50   2.006       .  S
O31          C39   1.282       .  A
O31         Co51   2.016       .  S
O32          C40   1.296       .  A
O32         Co52   2.113       .  S
O33          C41   1.274       .  A
O33         Co53   2.010       .  S
O34          C40   1.273       .  A
O34         Co51   1.926       .  S
O35          C41   1.277       .  A
O35         Co50   2.000       .  S
O36          C39   1.273       .  A
O36         Co53   1.996       .  S
O37          C38   1.264       .  A
O37         Co52   1.979       .  S
C38        C2183   1.474       .  S
C39        C2052   1.492       .  S
C40        C2015   1.500       .  S
C41        C2108   1.496       .  S
O42          C55   1.273       .  A
O42         Co50   1.995       .  S
O43          C56   1.300       .  A
O43         Co51   2.141       .  S
O44          C57   1.281       .  A
O44         Co52   2.001       .  S
O45          C58   1.278       .  A
O45         Co53   2.007       .  S
O46          C58   1.266       .  A
O46         Co51   1.972       .  S
O47          C57   1.274       .  A
O47         Co50   2.009       .  S
O48          C55   1.277       .  A
O48         Co53   2.006       .  S
O49          C56   1.270       .  A
O49         Co52   1.914       .  S
Co50         O54   2.047       .  S
Co51         O54   2.015       .  S
Co52         O54   2.015       .  S
Co53         O54   2.057       .  S
C55        C2127   1.495       .  S
C56        C1987   1.498       .  S
C57        C2164   1.493       .  S
C58        C2071   1.483       .  S
O59          C67   1.267       .  A
O59         Co79   2.000       .  S
O60          C68   1.271       .  A
O60         Co80   1.970       .  S
O61          C69   1.272       .  A
O61         Co81   2.009       .  S
O62          C70   1.270       .  A
O62         Co82   2.017       .  S
O63          C69   1.277       .  A
O63         Co80   2.024       .  S
O64          C70   1.263       .  A
O64         Co79   1.983       .  S
O65          C68   1.278       .  A
O65         Co82   2.026       .  S
O66          C67   1.262       .  A
O66         Co81   1.970       .  S
C67        C1931   1.494       .  S
C68        C1819   1.478       .  S
C69        C1800   1.501       .  S
C70        C1903   1.496       .  S
O71          C84   1.277       .  A
O71         Co79   2.026       .  S
O72          C85   1.277       .  A
O72         Co80   2.040       .  S
O73          C86   1.246       .  A
O73         Co81   1.929       .  S
O74          C87   1.279       .  A
O74         Co82   2.022       .  S
O75          C87   1.263       .  A
O75         Co80   1.969       .  S
O76          C86   1.263       .  A
O76         Co79   1.997       .  S
O77          C84   1.274       .  A
O77         Co82   1.998       .  S
O78          C85   1.259       .  A
O78         Co81   1.947       .  S
Co79         O83   2.090       .  S
Co80         O83   2.037       .  S
Co81         O83   2.006       .  S
Co82         O83   2.103       .  S
C84        C1875   1.496       .  S
C85        C1772   1.472       .  S
C86        C1968   1.452       .  S
C87        C1847   1.489       .  S
C88        C1679   1.502       .  S
C88          C89   1.428   1_556  A
C88          C93   1.431       .  A
C89        C1651   1.510       .  S
C89          C90   1.421       .  A
C90        C1735   1.489       .  S
C90          C91   1.419   1_545  A
C91        C1716   1.517       .  S
C91          C92   1.426       .  A
C92        C1623   1.494       .  S
C92          C93   1.433   1_564  A
C93        C1595   1.513       .  S
C94        C1567   1.489       .  S
C94          C95   1.403       .  A
C94          C99   1.408       .  A
C95          C96   1.405   1_545  A
C95         H100   1.081       .  S
C96        C1744   1.506       .  S
C96          C97   1.405       .  A
C97          C98   1.406       .  A
C97         H101   1.078       .  S
C98        C1791   1.483       .  S
C98          C99   1.408   1_565  A
C99         H102   1.083       .  S
C103       C1539   1.505       .  S
C103        C104   1.416       .  A
C103        C108   1.408       .  A
C104        C105   1.414   1_554  A
C104        H109   1.082       .  S
C105       C2043   1.492       .  S
C105        C106   1.407       .  A
C106        C107   1.406   1_556  A
C106        H110   1.083       .  S
C107       C1660   1.496       .  S
C107        C108   1.403       .  A
C108        H111   1.084       .  S
C112       C1520   1.517       .  S
C112        C113   1.413       .  A
C112        C117   1.422       .  A
C113        C114   1.400   1_545  A
C113        H118   1.083       .  S
C114       C1604   1.484       .  S
C114        C115   1.396       .  A
C115        C116   1.408       .  A
C115        H119   1.084       .  S
C116       C2304   1.501       .  S
C116        C117   1.420   1_565  A
C117        H120   1.080       .  S
C121       C2099   1.494       .  S
C121        C122   1.401       .  A
C121        C126   1.410       .  A
C122        C123   1.406       .  A
C122        H127   1.083       .  S
C123       C1688   1.502       .  S
C123        C124   1.407       .  A
C124        C125   1.408       .  A
C124        H128   1.079       .  S
C125       C1492   1.493       .  S
C125        C126   1.414       .  A
C126        H129   1.083       .  S
C130       C1940   1.496       .  S
C130        C131   1.407       .  A
C130        C135   1.415       .  A
C131        C132   1.401       .  A
C131        H136   1.084       .  S
C132       C1707   1.488       .  S
C132        C133   1.404       .  A
C133        C134   1.410       .  A
C133        H137   1.083       .  S
C134       C1455   1.501       .  S
C134        C135   1.417       .  A
C135        H138   1.083       .  S
C139       C1427   1.482       .  S
C139        C140   1.404       .  A
C139        C144   1.405       .  A
C140        C141   1.401   1_554  A
C140        H145   1.084       .  S
C141       C2220   1.470       .  S
C141        C142   1.397       .  A
C142        C143   1.401   1_556  A
C142        H146   1.082       .  S
C143       C1632   1.490       .  S
C143        C144   1.407       .  A
C144        H147   1.083       .  S
C148       C1259   1.498       .  S
C148        C149   1.425       .  A
C148        C153   1.422       .  A
C149       C1399   1.506       .  S
C149        C150   1.425   1_455  A
C150       C1371   1.503   1_556  S
C150        C151   1.430   1_556  A
C151       C1343   1.506       .  S
C151        C152   1.430   1_655  A
C152       C1315   1.503       .  S
C152        C153   1.425   1_554  A
C153       C1287   1.505       .  S
C154       C2248   1.500       .  S
C154        C155   1.414       .  A
C154        C159   1.408       .  A
C155        C156   1.413   1_556  A
C155        H160   1.080       .  S
C156       C1240   1.493       .  S
C156        C157   1.405       .  A
C157        C158   1.396   1_554  A
C157        H161   1.083       .  S
C158       C1296   1.484       .  S
C158        C159   1.403       .  A
C159        H162   1.084       .  S
C163       C2416   1.492       .  S
C163        C164   1.406       .  A
C163        C168   1.408       .  A
C164        C165   1.407       .  A
C164        H169   1.083       .  S
C165       C1268   1.491       .  S
C165        C166   1.401       .  A
C166        C167   1.404       .  A
C166        H170   1.082       .  S
C167       C1212   1.486       .  S
C167        C168   1.408       .  A
C168        H171   1.083       .  S
C172       C1184   1.496       .  S
C172        C173   1.413   1_455  A
C172        C177   1.407       .  A
C173        C174   1.414       .  A
C173        H178   1.083       .  S
C174       C1828   1.488       .  S
C174        C175   1.405       .  A
C175        C176   1.401       .  A
C175        H179   1.083       .  S
C176       C1324   1.487   1_655  S
C176        C177   1.402   1_655  A
C177        H180   1.084       .  S
C181       C1147   1.495       .  S
C181        C182   1.407       .  A
C181        C186   1.410       .  A
C182        C183   1.410       .  A
C182        H187   1.082       .  S
C183       C1352   1.498       .  S
C183        C184   1.406       .  A
C184        C185   1.401       .  A
C184        H188   1.082       .  S
C185       C1912   1.485       .  S
C185        C186   1.407       .  A
C186        H189   1.083       .  S
C190       C1119   1.522       .  S
C190        C191   1.414       .  A
C190        C195   1.419       .  A
C191        C192   1.406       .  A
C191        H196   1.082       .  S
C192       C1408   1.500       .  S
C192        C193   1.405   1_455  A
C193        C194   1.406       .  A
C193        H197   1.082       .  S
C194       C1996   1.500       .  S
C194        C195   1.418   1_655  A
C195        H198   1.079       .  S
C199       C1100   1.495       .  S
C199        C200   1.414       .  A
C199        C204   1.409       .  A
C200        C201   1.412   1_554  A
C200        H205   1.082       .  S
C201       C2080   1.489       .  S
C201        C202   1.403       .  A
C202        C203   1.395   1_556  A
C202        H206   1.085       .  S
C203       C1380   1.476       .  S
C203        C204   1.399       .  A
C204        H207   1.084       .  S
C208       C1063   1.499       .  S
C208        C209   1.427       .  A
C208        C213   1.444       .  A
C209       C1035   1.502       .  S
C209        C210   1.414       .  A
C210       C1007   1.498       .  S
C210        C211   1.414       .  A
C211        C979   1.500       .  S
C211        C212   1.426       .  A
C212        C923   1.500       .  S
C212        C213   1.446       .  A
C213        C951   1.548       .  S
C214       C2136   1.497       .  S
C214        C215   1.407       .  A
C214        C219   1.416       .  A
C215        C216   1.402       .  A
C215        H220   1.084       .  S
C216       C1072   1.483       .  S
C216        C217   1.399       .  A
C217        C218   1.403       .  A
C217        H221   1.084       .  S
C218        C904   1.492       .  S
C218        C219   1.414       .  A
C219        H222   1.083       .  S
C223        C867   1.492       .  S
C223        C224   1.412       .  A
C223        C228   1.406       .  A
C224        C225   1.412       .  A
C224        H229   1.082       .  S
C225       C2332   1.497       .  S
C225        C226   1.407       .  A
C226        C227   1.404       .  A
C226        H230   1.081       .  S
C227        C932   1.498       .  S
C227        C228   1.404       .  A
C228        H231   1.083       .  S
C232       C1884   1.501       .  S
C232        C233   1.418       .  A
C232        C237   1.408       .  A
C233        C234   1.416       .  A
C233        H238   1.083       .  S
C234        C839   1.486       .  S
C234        C235   1.398       .  A
C235        C236   1.395       .  A
C235        H239   1.084       .  S
C236       C1016   1.478       .  S
C236        C237   1.402       .  A
C237        H240   1.084       .  S
C241        C820   1.481       .  S
C241        C242   1.405       .  A
C241        C246   1.401       .  A
C242        C243   1.408       .  A
C242        H247   1.082       .  S
C243       C1959   1.486       .  S
C243        C244   1.408       .  A
C244        C245   1.400       .  A
C244        H248   1.084       .  S
C245        C988   1.482       .  S
C245        C246   1.400       .  A
C246        H249   1.084       .  S
C250       C2379   1.489       .  S
C250        C251   1.406       .  A
C250        C255   1.397       .  A
C251        C252   1.414       .  A
C251        H256   1.083       .  S
C252        C792   1.496       .  S
C252        C253   1.413       .  A
C253        C254   1.414       .  A
C253        H257   1.080       .  S
C254        C960   1.508       .  S
C254        C255   1.409       .  A
C255        H258   1.083       .  S
C259       C2155   1.492       .  S
C259        C260   1.403       .  A
C259        C264   1.410       .  A
C260        C261   1.402       .  A
C260        H265   1.084       .  S
C261       C1044   1.486       .  S
C261        C262   1.405       .  A
C262        C263   1.411       .  A
C262        H266   1.081       .  S
C263        C764   1.505       .  S
C263        C264   1.416       .  A
C264        H267   1.083       .  S
C268        C699   1.493       .  S
C268        C269   1.417       .  A
C268        C273   1.417   1_465  A
C269        C736   1.494       .  S
C269        C270   1.419   1_455  A
C270        C587   1.496   1_655  S
C270        C271   1.422       .  A
C271        C624   1.498       .  S
C271        C272   1.421   1_565  A
C272        C643   1.492       .  S
C272        C273   1.421       .  A
C273        C671   1.498       .  S
C274       C2024   1.516       .  S
C274        C275   1.418       .  A
C274        C279   1.412       .  A
C275        C276   1.414   1_655  A
C275        H280   1.082       .  S
C276        C568   1.505       .  S
C276        C277   1.409       .  A
C277        C278   1.407   1_455  A
C277        H281   1.083       .  S
C278        C680   1.497       .  S
C278        C279   1.407       .  A
C279        H282   1.081       .  S
C283        C531   1.485       .  S
C283        C284   1.408       .  A
C283        C288   1.403       .  A
C284        C285   1.407   1_545  A
C284        H289   1.084       .  S
C285       C2276   1.477       .  S
C285        C286   1.402       .  A
C286        C287   1.398       .  A
C286        H290   1.084       .  S
C287        C708   1.471       .  S
C287        C288   1.400   1_565  A
C288        H291   1.084       .  S
C292       C2360   1.503       .  S
C292        C293   1.409       .  A
C292        C297   1.415       .  A
C293        C294   1.408       .  A
C293        H298   1.081       .  S
C294        C727   1.502       .  S
C294        C295   1.405       .  A
C295        C296   1.400       .  A
C295        H299   1.080       .  S
C296        C503   1.484       .  S
C296        C297   1.406       .  A
C297        H300   1.082       .  S
C301       C2192   1.473       .  S
C301        C302   1.403       .  A
C301        C306   1.406       .  A
C302        C303   1.397       .  A
C302        H307   1.084       .  S
C303        C652   1.468       .  S
C303        C304   1.395       .  A
C304        C305   1.400       .  A
C304        H308   1.084       .  S
C305        C475   1.477       .  S
C305        C306   1.406       .  A
C306        H309   1.084       .  S
C310       C1763   1.486       .  S
C310        C311   1.403       .  A
C310        C315   1.417       .  A
C311        C312   1.394       .  A
C311        H316   1.083       .  S
C312        C615   1.475       .  S
C312        C313   1.398   1_565  A
C313        C314   1.404       .  A
C313        H317   1.085       .  S
C314        C447   1.494       .  S
C314        C315   1.414   1_545  A
C315        H318   1.083       .  S
C319       C1856   1.495       .  S
C319        C320   1.404       .  A
C319        C324   1.413       .  A
C320        C321   1.398   1_655  A
C320        H325   1.083       .  S
C321        C596   1.477       .  S
C321        C322   1.397       .  A
C322        C323   1.403       .  A
C322        H326   1.084       .  S
C323        C419   1.481       .  S
C323        C324   1.409   1_455  A
C324        H327   1.083       .  S
O328        C336   1.278       .  A
O328       Co348   2.000       .  S
O329        C337   1.251       .  A
O329       Co349   2.000       .  S
O330        C338   1.249       .  A
O330       Co350   1.979       .  S
O331        C339   1.270       .  A
O331       Co351   1.979       .  S
O332        C338   1.260       .  A
O332       Co349   2.024       .  S
O333        C339   1.281       .  A
O333       Co348   2.008       .  S
O334        C337   1.250       .  A
O334       Co351   1.992       .  S
O335        C336   1.275       .  A
O335       Co350   1.995       .  S
C336        C540   1.485       .  S
C337        C783   1.504       .  S
C338        C559   1.506       .  S
C339        C895   1.480       .  S
O340        C353   1.263       .  A
O340       Co348   1.978       .  S
O341        C354   1.283       .  A
O341       Co349   2.023       .  S
O342        C355   1.274       .  A
O342       Co350   2.014       .  S
O343        C356   1.272       .  A
O343       Co351   1.908       .  S
O344        C356   1.298       .  A
O344       Co349   2.076       .  S
O345        C355   1.269       .  A
O345       Co348   2.002       .  S
O346        C353   1.273       .  A
O346       Co351   2.016       .  S
O347        C354   1.280       .  A
O347       Co350   1.967       .  S
Co348       O352   2.092       .  S
Co349       O352   2.246       .  S
Co350       O352   2.004       .  S
Co351       O352   1.965       .  S
C353       C1483   1.499       .  S
C354       C1128   1.507       .  S
C355       C1511   1.499       .  S
C356       C1203   1.491       .  S
O357        C365   1.261       .  A
O357       Co377   1.984       .  S
O358        C366   1.265       .  A
O358       Co378   1.997       .  S
O359        C367   1.281       .  A
O359       Co379   1.915       .  S
O360        C368   1.267       .  A
O360       Co380   1.978       .  S
O361        C367   1.302       .  A
O361       Co378   2.102       .  S
O362        C368   1.271       .  A
O362       Co377   2.004       .  S
O363        C366   1.264       .  A
O363       Co380   1.989       .  S
O364        C365   1.279       .  A
O364       Co379   2.038       .  S
C365        C456   1.506       .  S
C366       C1156   1.482       .  S
C367       C1091   1.496       .  S
C368        C484   1.471       .  S
O369        C382   1.282       .  A
O369       Co377   2.016       .  S
O370        C383   1.265       .  A
O370       Co378   1.985       .  S
O371        C384   1.304       .  A
O371       Co379   2.078       .  S
O372        C385   1.275       .  A
O372       Co380   2.023       .  S
O373        C385   1.270       .  A
O373       Co378   1.992       .  S
O374        C384   1.282       .  A
O374       Co377   1.980       .  S
O375        C382   1.267       .  A
O375       Co380   1.987       .  S
O376        C383   1.289       .  A
O376       Co379   2.080       .  S
Co377       O381   2.089       .  S
Co378       O381   2.129       .  S
Co379       O381   1.928       .  S
Co380       O381   2.053       .  S
C382        C755   1.495       .  S
C383       C1548   1.486       .  S
C384       C1576   1.497       .  S
C385        C848   1.482       .  S
O386        C394   1.278       .  A
O386       Co406   1.992       .  S
O387        C395   1.272       .  A
O387       Co407   1.906       .  S
O388        C396   1.265       .  A
O388       Co408   1.977       .  S
O389        C397   1.304       .  A
O389       Co409   2.098       .  S
O390        C396   1.272       .  A
O390       Co407   2.004       .  S
O391        C397   1.286       .  A
O391       Co406   1.899       .  S
O392        C395   1.301       .  A
O392       Co409   2.092       .  S
O393        C394   1.278       .  A
O393       Co408   2.007       .  S
C394        C811   1.479       .  S
C395       C1175   1.495       .  S
C396        C876   1.478       .  S
C397       C1231   1.494       .  S
O398        C411   1.255       .  A
O398       Co406   2.004       .  S
O399        C412   1.270       .  A
O399       Co407   1.959       .  S
O400        C413   1.287       .  A
O400       Co408   2.019       .  S
O401        C414   1.269       .  A
O401       Co409   1.898       .  S
O402        C414   1.300       .  A
O402       Co407   2.112       .  S
O403        C413   1.280       .  A
O403       Co406   2.007       .  S
O404        C411   1.252       .  A
O404       Co409   1.986       .  S
O405        C412   1.288       .  A
O405       Co408   2.020       .  S
Co406       O410   1.909       .  S
Co407       O410   1.976       .  S
Co408       O410   2.007       .  S
Co409       O410   2.026       .  S
C411       C1436   1.469       .  S
C412        C512   1.480       .  S
C413       C1464   1.502       .  S
C414        C428   1.482       .  S
C415        C416   1.406       .  A
C415        C420   1.406       .  A
C415        H425   1.081       .  S
C416        C421   1.489       .  S
C416        C417   1.414       .  A
C417        C418   1.397       .  A
C417        N422   1.430       .  S
C418        C419   1.401       .  A
C418        H423   1.084       .  S
C419        C420   1.410       .  A
C420        N424   1.429       .  S
C421        C426   1.412       .  A
C421        C430   1.404       .  A
N422        O437   1.262       .  A
N422        O438   1.261       .  A
N424        O435   1.262       .  A
N424        O436   1.262       .  A
C426        C427   1.402       .  A
C426        N431   1.432       .  S
C427        C428   1.406       .  A
C427        H432   1.084       .  S
C428        C429   1.413       .  A
C429        C430   1.403       .  A
C429        N433   1.437       .  S
C430        H434   1.083       .  S
N431        O441   1.262       .  A
N431        O442   1.261       .  A
N433        O439   1.263       .  A
N433        O440   1.262       .  A
C443        C444   1.407       .  A
C443        C448   1.412       .  A
C443        H453   1.083       .  S
C444        C449   1.491       .  S
C444        C445   1.409       .  A
C445        C446   1.400       .  A
C445        N450   1.429       .  S
C446        C447   1.406       .  A
C446        H451   1.084       .  S
C447        C448   1.413       .  A
C448        N452   1.428       .  S
C449        C454   1.412       .  A
C449        C458   1.392       .  A
N450        O465   1.262       .  A
N450        O466   1.262       .  A
N452        O463   1.262       .  A
N452        O464   1.262       .  A
C454        C455   1.415       .  A
C454        N459   1.427       .  S
C455        C456   1.410       .  A
C455        H460   1.083       .  S
C456        C457   1.431       .  A
C457        C458   1.398       .  A
C457        N461   1.433       .  S
C458        H462   1.085       .  S
N459        O469   1.262       .  A
N459        O470   1.262       .  A
N461        O467   1.261       .  A
N461        O468   1.261       .  A
C471        C472   1.400       .  A
C471        C476   1.398       .  A
C471        H481   1.084       .  S
C472        C477   1.478       .  S
C472        C473   1.413       .  A
C473        C474   1.399       .  A
C473        N478   1.430       .  S
C474        C475   1.400       .  A
C474        H479   1.084       .  S
C475        C476   1.413       .  A
C476        N480   1.430       .  S
C477        C482   1.410       .  A
C477        C486   1.398       .  A
N478        O493   1.261       .  A
N478        O494   1.262       .  A
N480        O491   1.262       .  A
N480        O492   1.262       .  A
C482        C483   1.403       .  A
C482        N487   1.429       .  S
C483        C484   1.404       .  A
C483        H488   1.084       .  S
C484        C485   1.408       .  A
C485        C486   1.394       .  A
C485        N489   1.426       .  S
C486        H490   1.084       .  S
N487        O497   1.262       .  A
N487        O498   1.262       .  A
N489        O495   1.261       .  A
N489        O496   1.261       .  A
C499        C500   1.400       .  A
C499        C504   1.400       .  A
C499        H509   1.084       .  S
C500        C505   1.492       .  S
C500        C501   1.419       .  A
C501        C502   1.408       .  A
C501        N506   1.432       .  S
C502        C503   1.401       .  A
C502        H507   1.084       .  S
C503        C504   1.411       .  A
C504        N508   1.429       .  S
C505        C510   1.411       .  A
C505        C514   1.408       .  A
N506        O521   1.262       .  A
N506        O522   1.263       .  A
N508        O519   1.261       .  A
N508        O520   1.262       .  A
C510        C511   1.400       .  A
C510        N515   1.432       .  S
C511        C512   1.407       .  A
C511        H516   1.083       .  S
C512        C513   1.409       .  A
C513        C514   1.409       .  A
C513        N517   1.429       .  S
C514        H518   1.084       .  S
N515        O525   1.262       .  A
N515        O526   1.262       .  A
N517        O523   1.262       .  A
N517        O524   1.262       .  A
C527        C528   1.401       .  A
C527        C532   1.401       .  A
C527        H537   1.084       .  S
C528        C533   1.478       .  S
C528        C529   1.408       .  A
C529        C530   1.404       .  A
C529        N534   1.429       .  S
C530        C531   1.406       .  A
C530        H535   1.084       .  S
C531        C532   1.413       .  A
C532        N536   1.431       .  S
C533        C538   1.409       .  A
C533        C542   1.395       .  A
N534        O549   1.262       .  A
N534        O550   1.262       .  A
N536        O547   1.262       .  A
N536        O548   1.262       .  A
C538        C539   1.409       .  A
C538        N543   1.427       .  S
C539        C540   1.407       .  A
C539        H544   1.083       .  S
C540        C541   1.416       .  A
C541        C542   1.392       .  A
C541        N545   1.430       .  S
C542        H546   1.085       .  S
N543        O553   1.262       .  A
N543        O554   1.262       .  A
N545        O551   1.262       .  A
N545        O552   1.262       .  A
C555        C556   1.399       .  A
C555        C560   1.404       .  A
C555        H565   1.084       .  S
C556        C561   1.500       .  S
C556        C557   1.413       .  A
C557        C558   1.413       .  A
C557        N562   1.428       .  S
C558        C559   1.410       .  A
C558        H563   1.084       .  S
C559        C560   1.420       .  A
C560        N564   1.426       .  S
C561        C566   1.413       .  A
C561        C570   1.405       .  A
N562        O577   1.262       .  A
N562        O578   1.262       .  A
N564        O575   1.262       .  A
N564        O576   1.261       .  A
C566        C567   1.408       .  A
C566        N571   1.429       .  S
C567        C568   1.408       .  A
C567        H572   1.084       .  S
C568        C569   1.416       .  A
C569        C570   1.409       .  A
C569        N573   1.429       .  S
C570        H574   1.084       .  S
N571        O581   1.262       .  A
N571        O582   1.262       .  A
N573        O579   1.262       .  A
N573        O580   1.262       .  A
C583        C584   1.399       .  A
C583        C588   1.405       .  A
C583        H593   1.084       .  S
C584        C589   1.476       .  S
C584        C585   1.406   1_455  A
C585        C586   1.396       .  A
C585        N590   1.430       .  S
C586        C587   1.404   1_655  A
C586        H591   1.082       .  S
C587        C588   1.418       .  A
C588        N592   1.434       .  S
C589        C594   1.408   1_455  A
C589        C598   1.401       .  A
N590        O605   1.262       .  A
N590        O606   1.262       .  A
N592        O603   1.262   1_565  A
N592        O604   1.263       .  A
C594        C595   1.398       .  A
C594        N599   1.429       .  S
C595        C596   1.403   1_655  A
C595        H600   1.084       .  S
C596        C597   1.410       .  A
C597        C598   1.401       .  A
C597        N601   1.428       .  S
C598        H602   1.084       .  S
N599        O609   1.261       .  A
N599        O610   1.262       .  A
N601        O607   1.262       .  A
N601        O608   1.262       .  A
C611        C612   1.403       .  A
C611        C616   1.403       .  A
C611        H621   1.081       .  S
C612        C617   1.480       .  S
C612        C613   1.409       .  A
C613        C614   1.396       .  A
C613        N618   1.427   1_565  S
C614        C615   1.399       .  A
C614        H619   1.084   1_565  S
C615        C616   1.409       .  A
C616        N620   1.429       .  S
C617        C622   1.406       .  A
C617        C626   1.401       .  A
N618        O633   1.262       .  A
N618        O634   1.262       .  A
N620        O631   1.262       .  A
N620        O632   1.262       .  A
C622        C623   1.397       .  A
C622        N627   1.430       .  S
C623        C624   1.403       .  A
C623        H628   1.078       .  S
C624        C625   1.415   1_565  A
C625        C626   1.404   1_545  A
C625        N629   1.431       .  S
C626        H630   1.084   1_565  S
N627        O637   1.262       .  A
N627        O638   1.262       .  A
N629        O635   1.262       .  A
N629        O636   1.261       .  A
C639        C640   1.398       .  A
C639        C644   1.401       .  A
C639        H649   1.084       .  S
C640        C645   1.474       .  S
C640        C641   1.406       .  A
C641        C642   1.398       .  A
C641        N646   1.429       .  S
C642        C643   1.404       .  A
C642        H647   1.080       .  S
C643        C644   1.416       .  A
C644        N648   1.431       .  S
C645        C650   1.410       .  A
C645        C654   1.403       .  A
N646        O661   1.262       .  A
N646        O662   1.262       .  A
N648        O659   1.261       .  A
N648        O660   1.261   1_545  A
C650        C651   1.398       .  A
C650        N655   1.430       .  S
C651        C652   1.398       .  A
C651        H656   1.084       .  S
C652        C653   1.406       .  A
C653        C654   1.399       .  A
C653        N657   1.428       .  S
C654        H658   1.084       .  S
N655        O665   1.262       .  A
N655        O666   1.262       .  A
N657        O663   1.262       .  A
N657        O664   1.262       .  A
C667        C668   1.405       .  A
C667        C672   1.405       .  A
C667        H677   1.084   1_655  S
C668        C673   1.489       .  S
C668        C669   1.409       .  A
C669        C670   1.402       .  A
C669        N674   1.431       .  S
C670        C671   1.405       .  A
C670        H675   1.082       .  S
C671        C672   1.415       .  A
C672        N676   1.436   1_655  S
C673        C678   1.414   1_655  A
C673        C682   1.399       .  A
N674        O689   1.262       .  A
N674        O690   1.262   1_655  A
N676        O687   1.262       .  A
N676        O688   1.263   1_455  A
C678        C679   1.409       .  A
C678        N683   1.431       .  S
C679        C680   1.408   1_455  A
C679        H684   1.084       .  S
C680        C681   1.416       .  A
C681        C682   1.400       .  A
C681        N685   1.430       .  S
C682        H686   1.084       .  S
N683        O693   1.262       .  A
N683        O694   1.262       .  A
N685        O691   1.262       .  A
N685        O692   1.262       .  A
C695        C696   1.402   1_545  A
C695        C700   1.400       .  A
C695        H705   1.084       .  S
C696        C701   1.478       .  S
C696        C697   1.405       .  A
C697        C698   1.399       .  A
C697        N702   1.428       .  S
C698        C699   1.406       .  A
C698        H703   1.082       .  S
C699        C700   1.414   1_565  A
C700        N704   1.432       .  S
C701        C706   1.408       .  A
C701        C710   1.404       .  A
N702        O717   1.262       .  A
N702        O718   1.261       .  A
N704        O715   1.262       .  A
N704        O716   1.261       .  A
C706        C707   1.397       .  A
C706        N711   1.428       .  S
C707        C708   1.400       .  A
C707        H712   1.084       .  S
C708        C709   1.407       .  A
C709        C710   1.403       .  A
C709        N713   1.428   1_565  S
C710        H714   1.083       .  S
N711        O721   1.262       .  A
N711        O722   1.262       .  A
N713        O719   1.262   1_545  A
N713        O720   1.262       .  A
C723        C724   1.400       .  A
C723        C728   1.398       .  A
C723        H733   1.084       .  S
C724        C729   1.484       .  S
C724        C725   1.407       .  A
C725        C726   1.400       .  A
C725        N730   1.430       .  S
C726        C727   1.412       .  A
C726        H731   1.082       .  S
C727        C728   1.420       .  A
C728        N732   1.428       .  S
C729        C734   1.413       .  A
C729        C738   1.403       .  A
N730        O745   1.262       .  A
N730        O746   1.262       .  A
N732        O743   1.263       .  A
N732        O744   1.261       .  A
C734        C735   1.397       .  A
C734        N739   1.435       .  S
C735        C736   1.400       .  A
C735        H740   1.095       .  S
C736        C737   1.414       .  A
C737        C738   1.401       .  A
C737        N741   1.434       .  S
C738        H742   1.087       .  S
N739        O749   1.262       .  A
N739        O750   1.262       .  A
N741        O747   1.262   1_455  A
N741        O748   1.262   1_455  A
C751        C752   1.397       .  A
C751        C756   1.395       .  A
C751        H761   1.084       .  S
C752        C757   1.498       .  S
C752        C753   1.416       .  A
C753        C754   1.414       .  A
C753        N758   1.428       .  S
C754        C755   1.407       .  A
C754        H759   1.083       .  S
C755        C756   1.424       .  A
C756        N760   1.433       .  S
C757        C762   1.416       .  A
C757        C766   1.402       .  A
N758        O773   1.262       .  A
N758        O774   1.262       .  A
N760        O771   1.262       .  A
N760        O772   1.260       .  A
C762        C763   1.402       .  A
C762        N767   1.431       .  S
C763        C764   1.405       .  A
C763        H768   1.083       .  S
C764        C765   1.421       .  A
C765        C766   1.409       .  A
C765        N769   1.430       .  S
C766        H770   1.082       .  S
N767        O777   1.261       .  A
N767        O778   1.262       .  A
N769        O775   1.262       .  A
N769        O776   1.262       .  A
C779        C780   1.404       .  A
C779        C784   1.409       .  A
C779        H789   1.084       .  S
C780        C785   1.498       .  S
C780        C781   1.412       .  A
C781        C782   1.409       .  A
C781        N786   1.430       .  S
C782        C783   1.410       .  A
C782        H787   1.083       .  S
C783        C784   1.419       .  A
C784        N788   1.428       .  S
C785        C790   1.413       .  A
C785        C794   1.405       .  A
N786        O801   1.262       .  A
N786        O802   1.262       .  A
N788        O799   1.261       .  A
N788        O800   1.262       .  A
C790        C791   1.411       .  A
C790        N795   1.428       .  S
C791        C792   1.406       .  A
C791        H796   1.083       .  S
C792        C793   1.412       .  A
C793        C794   1.406       .  A
C793        N797   1.429       .  S
C794        H798   1.084       .  S
N795        O805   1.262       .  A
N795        O806   1.261       .  A
N797        O803   1.262       .  A
N797        O804   1.262       .  A
C807        C808   1.409       .  A
C807        C812   1.409       .  A
C807        H817   1.083       .  S
C808        C813   1.491       .  S
C808        C809   1.409       .  A
C809        C810   1.398       .  A
C809        N814   1.430       .  S
C810        C811   1.404       .  A
C810        H815   1.082       .  S
C811        C812   1.409       .  A
C812        N816   1.432       .  S
C813        C818   1.411       .  A
C813        C822   1.408       .  A
N814        O829   1.262       .  A
N814        O830   1.262       .  A
N816        O827   1.262       .  A
N816        O828   1.262       .  A
C818        C819   1.397       .  A
C818        N823   1.429       .  S
C819        C820   1.402       .  A
C819        H824   1.084       .  S
C820        C821   1.409       .  A
C821        C822   1.405       .  A
C821        N825   1.429       .  S
C822        H826   1.083       .  S
N823        O833   1.262       .  A
N823        O834   1.262       .  A
N825        O831   1.262       .  A
N825        O832   1.262       .  A
C835        C836   1.406       .  A
C835        C840   1.406       .  A
C835        H845   1.084       .  S
C836        C841   1.490       .  S
C836        C837   1.412       .  A
C837        C838   1.403       .  A
C837        N842   1.429       .  S
C838        C839   1.405       .  A
C838        H843   1.084       .  S
C839        C840   1.409       .  A
C840        N844   1.428       .  S
C841        C846   1.417       .  A
C841        C850   1.397       .  A
N842        O857   1.262       .  A
N842        O858   1.262       .  A
N844        O855   1.262       .  A
N844        O856   1.262       .  A
C846        C847   1.412       .  A
C846        N851   1.428       .  S
C847        C848   1.404       .  A
C847        H852   1.084       .  S
C848        C849   1.408       .  A
C849        C850   1.397       .  A
C849        N853   1.426       .  S
C850        H854   1.084       .  S
N851        O861   1.262       .  A
N851        O862   1.262       .  A
N853        O859   1.260       .  A
N853        O860   1.262       .  A
C863        C864   1.398       .  A
C863        C868   1.402       .  A
C863        H873   1.084       .  S
C864        C869   1.483       .  S
C864        C865   1.411       .  A
C865        C866   1.406       .  A
C865        N870   1.429       .  S
C866        C867   1.405       .  A
C866        H871   1.084       .  S
C867        C868   1.417       .  A
C868        N872   1.431       .  S
C869        C874   1.406       .  A
C869        C878   1.405       .  A
N870        O885   1.262       .  A
N870        O886   1.262       .  A
N872        O883   1.262       .  A
N872        O884   1.262       .  A
C874        C875   1.396       .  A
C874        N879   1.429       .  S
C875        C876   1.404       .  A
C875        H880   1.085       .  S
C876        C877   1.412       .  A
C877        C878   1.410       .  A
C877        N881   1.429       .  S
C878        H882   1.083       .  S
N879        O889   1.262       .  A
N879        O890   1.262       .  A
N881        O887   1.262       .  A
N881        O888   1.262       .  A
C891        C892   1.407       .  A
C891        C896   1.409       .  A
C891        H901   1.084       .  S
C892        C897   1.490       .  S
C892        C893   1.411       .  A
C893        C894   1.401       .  A
C893        N898   1.433       .  S
C894        C895   1.405       .  A
C894        H899   1.084       .  S
C895        C896   1.411       .  A
C896        N900   1.429       .  S
C897        C902   1.415       .  A
C897        C906   1.399       .  A
N898        O913   1.262       .  A
N898        O914   1.262       .  A
N900        O911   1.262       .  A
N900        O912   1.262       .  A
C902        C903   1.407       .  A
C902        N907   1.430       .  S
C903        C904   1.404       .  A
C903        H908   1.084       .  S
C904        C905   1.415       .  A
C905        C906   1.403       .  A
C905        N909   1.430       .  S
C906        H910   1.084       .  S
N907        O917   1.262       .  A
N907        O918   1.262       .  A
N909        O915   1.262       .  A
N909        O916   1.262       .  A
C919        C920   1.407       .  A
C919        C924   1.403       .  A
C919        H929   1.089       .  S
C920        C925   1.497       .  S
C920        C921   1.418       .  A
C921        C922   1.392       .  A
C921        N926   1.430       .  S
C922        C923   1.400       .  A
C922        H927   1.106       .  S
C923        C924   1.412       .  A
C924        N928   1.428       .  S
C925        C930   1.416       .  A
C925        C934   1.404       .  A
N926        O941   1.263       .  A
N926        O942   1.260       .  A
N928        O939   1.261       .  A
N928        O940   1.262       .  A
C930        C931   1.402       .  A
C930        N935   1.431       .  S
C931        C932   1.407       .  A
C931        H936   1.084       .  S
C932        C933   1.416       .  A
C933        C934   1.399       .  A
C933        N937   1.432       .  S
C934        H938   1.082       .  S
N935        O945   1.262       .  A
N935        O946   1.261       .  A
N937        O943   1.262       .  A
N937        O944   1.262       .  A
C947        C948   1.405       .  A
C947        C952   1.402       .  A
C947        H957   1.080       .  S
C948        C953   1.498       .  S
C948        C949   1.414       .  A
C949        C950   1.408       .  A
C949        N954   1.433       .  S
C950        C951   1.413       .  A
C950        H955   1.074       .  S
C951        C952   1.414       .  A
C952        N956   1.439       .  S
C953        C958   1.413       .  A
C953        C962   1.407       .  A
N954        O969   1.262       .  A
N954        O970   1.262       .  A
N956        O967   1.263       .  A
N956        O968   1.264       .  A
C958        C959   1.398       .  A
C958        N963   1.432       .  S
C959        C960   1.410       .  A
C959        H964   1.083       .  S
C960        C961   1.419       .  A
C961        C962   1.408       .  A
C961        N965   1.428       .  S
C962        H966   1.084       .  S
N963        O973   1.262       .  A
N963        O974   1.262       .  A
N965        O971   1.262       .  A
N965        O972   1.262       .  A
C975        C976   1.399       .  A
C975        C980   1.407       .  A
C975        H985   1.084       .  S
C976        C981   1.477       .  S
C976        C977   1.403       .  A
C977        C978   1.399       .  A
C977        N982   1.429       .  S
C978        C979   1.407       .  A
C978        H983   1.082       .  S
C979        C980   1.421       .  A
C980        N984   1.441       .  S
C981        C986   1.407       .  A
C981        C990   1.401       .  A
N982        O997   1.262       .  A
N982        O998   1.262       .  A
N984        O995   1.263       .  A
N984        O996   1.262       .  A
C986        C987   1.396       .  A
C986        N991   1.427       .  S
C987        C988   1.401       .  A
C987        H992   1.084       .  S
C988        C989   1.412       .  A
C989        C990   1.403       .  A
C989        N993   1.429       .  S
C990        H994   1.082       .  S
N991       O1001   1.261       .  A
N991       O1002   1.261       .  A
N993        O999   1.262       .  A
N993       O1000   1.262       .  A
C1003      C1004   1.398       .  A
C1003      C1008   1.399       .  A
C1003      H1013   1.084       .  S
C1004      C1009   1.476       .  S
C1004      C1005   1.405       .  A
C1005      C1006   1.399       .  A
C1005      N1010   1.430       .  S
C1006      C1007   1.406       .  A
C1006      H1011   1.082       .  S
C1007      C1008   1.419       .  A
C1008      N1012   1.432       .  S
C1009      C1014   1.410       .  A
C1009      C1018   1.401       .  A
N1010      O1025   1.262       .  A
N1010      O1026   1.262       .  A
N1012      O1023   1.262       .  A
N1012      O1024   1.259       .  A
C1014      C1015   1.401       .  A
C1014      N1019   1.429       .  S
C1015      C1016   1.403       .  A
C1015      H1020   1.084       .  S
C1016      C1017   1.411       .  A
C1017      C1018   1.397       .  A
C1017      N1021   1.429       .  S
C1018      H1022   1.084       .  S
N1019      O1029   1.262       .  A
N1019      O1030   1.262       .  A
N1021      O1027   1.262       .  A
N1021      O1028   1.262       .  A
C1031      C1032   1.401       .  A
C1031      C1036   1.404       .  A
C1031      H1041   1.084       .  S
C1032      C1037   1.482       .  S
C1032      C1033   1.407       .  A
C1033      C1034   1.402       .  A
C1033      N1038   1.429       .  S
C1034      C1035   1.403       .  A
C1034      H1039   1.082       .  S
C1035      C1036   1.414       .  A
C1036      N1040   1.428       .  S
C1037      C1042   1.408       .  A
C1037      C1046   1.402       .  A
N1038      O1053   1.262       .  A
N1038      O1054   1.262       .  A
N1040      O1051   1.261       .  A
N1040      O1052   1.261       .  A
C1042      C1043   1.403       .  A
C1042      N1047   1.427       .  S
C1043      C1044   1.405       .  A
C1043      H1048   1.084       .  S
C1044      C1045   1.411       .  A
C1045      C1046   1.403       .  A
C1045      N1049   1.428       .  S
C1046      H1050   1.084       .  S
N1047      O1057   1.262       .  A
N1047      O1058   1.261       .  A
N1049      O1055   1.262       .  A
N1049      O1056   1.262       .  A
C1059      C1060   1.400       .  A
C1059      C1064   1.401       .  A
C1059      H1069   1.082       .  S
C1060      C1065   1.481       .  S
C1060      C1061   1.408       .  A
C1061      C1062   1.397       .  A
C1061      N1066   1.429       .  S
C1062      C1063   1.406       .  A
C1062      H1067   1.081       .  S
C1063      C1064   1.414       .  A
C1064      N1068   1.428       .  S
C1065      C1070   1.411       .  A
C1065      C1074   1.403       .  A
N1066      O1081   1.261       .  A
N1066      O1082   1.262       .  A
N1068      O1079   1.262       .  A
N1068      O1080   1.260       .  A
C1070      C1071   1.401       .  A
C1070      N1075   1.431       .  S
C1071      C1072   1.405       .  A
C1071      H1076   1.084       .  S
C1072      C1073   1.410       .  A
C1073      C1074   1.399       .  A
C1073      N1077   1.430       .  S
C1074      H1078   1.083       .  S
N1075      O1085   1.262       .  A
N1075      O1086   1.262       .  A
N1077      O1083   1.262       .  A
N1077      O1084   1.262       .  A
C1087      C1088   1.405       .  A
C1087      C1092   1.409       .  A
C1087      H1097   1.083       .  S
C1088      C1093   1.490       .  S
C1088      C1089   1.408       .  A
C1089      C1090   1.399       .  A
C1089      N1094   1.433       .  S
C1090      C1091   1.409       .  A
C1090      H1095   1.081       .  S
C1091      C1092   1.415       .  A
C1092      N1096   1.428       .  S
C1093      C1098   1.407       .  A
C1093      C1102   1.406       .  A
N1094      O1109   1.262       .  A
N1094      O1110   1.262       .  A
N1096      O1107   1.262       .  A
N1096      O1108   1.262       .  A
C1098      C1099   1.403       .  A
C1098      N1103   1.428       .  S
C1099      C1100   1.409       .  A
C1099      H1104   1.084       .  S
C1100      C1101   1.414       .  A
C1101      C1102   1.404       .  A
C1101      N1105   1.429       .  S
C1102      H1106   1.083       .  S
N1103      O1113   1.262       .  A
N1103      O1114   1.262       .  A
N1105      O1111   1.262       .  A
N1105      O1112   1.262       .  A
C1115      C1116   1.409       .  A
C1115      C1120   1.414       .  A
C1115      H1125   1.082       .  S
C1116      C1121   1.514       .  S
C1116      C1117   1.417       .  A
C1117      C1118   1.403       .  A
C1117      N1122   1.433       .  S
C1118      C1119   1.412       .  A
C1118      H1123   1.082       .  S
C1119      C1120   1.421       .  A
C1120      N1124   1.428       .  S
C1121      C1126   1.419       .  A
C1121      C1130   1.403       .  A
N1122      O1137   1.263       .  A
N1122      O1138   1.262       .  A
N1124      O1135   1.262       .  A
N1124      O1136   1.262       .  A
C1126      C1127   1.414       .  A
C1126      N1131   1.429       .  S
C1127      C1128   1.408       .  A
C1127      H1132   1.083       .  S
C1128      C1129   1.421       .  A
C1129      C1130   1.403       .  A
C1129      N1133   1.430       .  S
C1130      H1134   1.082       .  S
N1131      O1141   1.262       .  A
N1131      O1142   1.262       .  A
N1133      O1139   1.260       .  A
N1133      O1140   1.263       .  A
C1143      C1144   1.402       .  A
C1143      C1148   1.407       .  A
C1143      H1153   1.084       .  S
C1144      C1149   1.487       .  S
C1144      C1145   1.411       .  A
C1145      C1146   1.400       .  A
C1145      N1150   1.426       .  S
C1146      C1147   1.402       .  A
C1146      H1151   1.084       .  S
C1147      C1148   1.418       .  A
C1148      N1152   1.430       .  S
C1149      C1154   1.407       .  A
C1149      C1158   1.406       .  A
N1150      O1165   1.262       .  A
N1150      O1166   1.261       .  A
N1152      O1163   1.262       .  A
N1152      O1164   1.262       .  A
C1154      C1155   1.399       .  A
C1154      N1159   1.429       .  S
C1155      C1156   1.403       .  A
C1155      H1160   1.078       .  S
C1156      C1157   1.414       .  A
C1157      C1158   1.412       .  A
C1157      N1161   1.430       .  S
C1158      H1162   1.082       .  S
N1159      O1169   1.261       .  A
N1159      O1170   1.262       .  A
N1161      O1167   1.262       .  A
N1161      O1168   1.262       .  A
C1171      C1172   1.412       .  A
C1171      C1176   1.410       .  A
C1171      H1181   1.083       .  S
C1172      C1177   1.510       .  S
C1172      C1173   1.417       .  A
C1173      C1174   1.407       .  A
C1173      N1178   1.430       .  S
C1174      C1175   1.408       .  A
C1174      H1179   1.084       .  S
C1175      C1176   1.410       .  A
C1176      N1180   1.434       .  S
C1177      C1182   1.418       .  A
C1177      C1186   1.412       .  A
N1178      O1193   1.262       .  A
N1178      O1194   1.260       .  A
N1180      O1191   1.261       .  A
N1180      O1192   1.263       .  A
C1182      C1183   1.402       .  A
C1182      N1187   1.430       .  S
C1183      C1184   1.403       .  A
C1183      H1188   1.084       .  S
C1184      C1185   1.411       .  A
C1185      C1186   1.411       .  A
C1185      N1189   1.429       .  S
C1186      H1190   1.080       .  S
N1187      O1197   1.262       .  A
N1187      O1198   1.261       .  A
N1189      O1195   1.262       .  A
N1189      O1196   1.262       .  A
C1199      C1200   1.401       .  A
C1199      C1204   1.403       .  A
C1199      H1209   1.084       .  S
C1200      C1205   1.486       .  S
C1200      C1201   1.414       .  A
C1201      C1202   1.403       .  A
C1201      N1206   1.434       .  S
C1202      C1203   1.404       .  A
C1202      H1207   1.080       .  S
C1203      C1204   1.416       .  A
C1204      N1208   1.428       .  S
C1205      C1210   1.410       .  A
C1205      C1214   1.404       .  A
N1206      O1221   1.262       .  A
N1206      O1222   1.262       .  A
N1208      O1219   1.260       .  A
N1208      O1220   1.262       .  A
C1210      C1211   1.401       .  A
C1210      N1215   1.431       .  S
C1211      C1212   1.405       .  A
C1211      H1216   1.084       .  S
C1212      C1213   1.411       .  A
C1213      C1214   1.402       .  A
C1213      N1217   1.429       .  S
C1214      H1218   1.084       .  S
N1215      O1225   1.262       .  A
N1215      O1226   1.262       .  A
N1217      O1223   1.262       .  A
N1217      O1224   1.262       .  A
C1227      C1228   1.396       .  A
C1227      C1232   1.396       .  A
C1227      H1237   1.085       .  S
C1228      C1233   1.482       .  S
C1228      C1229   1.407       .  A
C1229      C1230   1.406       .  A
C1229      N1234   1.428       .  S
C1230      C1231   1.410       .  A
C1230      H1235   1.083       .  S
C1231      C1232   1.424       .  A
C1232      N1236   1.432       .  S
C1233      C1238   1.406       .  A
C1233      C1242   1.403       .  A
N1234      O1249   1.262       .  A
N1234      O1250   1.262       .  A
N1236      O1247   1.261       .  A
N1236      O1248   1.261       .  A
C1238      C1239   1.401       .  A
C1238      N1243   1.429       .  S
C1239      C1240   1.411       .  A
C1239      H1244   1.084       .  S
C1240      C1241   1.412       .  A
C1241      C1242   1.401       .  A
C1241      N1245   1.429       .  S
C1242      H1246   1.082       .  S
N1243      O1253   1.262       .  A
N1243      O1254   1.262       .  A
N1245      O1251   1.262       .  A
N1245      O1252   1.262       .  A
C1255      C1256   1.399       .  A
C1255      C1260   1.404       .  A
C1255      H1265   1.084       .  S
C1256      C1261   1.480       .  S
C1256      C1257   1.407       .  A
C1257      C1258   1.399       .  A
C1257      N1262   1.430       .  S
C1258      C1259   1.403       .  A
C1258      H1263   1.078       .  S
C1259      C1260   1.417       .  A
C1260      N1264   1.433       .  S
C1261      C1266   1.405       .  A
C1261      C1270   1.400       .  A
N1262      O1277   1.262       .  A
N1262      O1278   1.262       .  A
N1264      O1275   1.262       .  A
N1264      O1276   1.260   1_556  A
C1266      C1267   1.398       .  A
C1266      N1271   1.426       .  S
C1267      C1268   1.402       .  A
C1267      H1272   1.084       .  S
C1268      C1269   1.417       .  A
C1269      C1270   1.404       .  A
C1269      N1273   1.429       .  S
C1270      H1274   1.082       .  S
N1271      O1281   1.262       .  A
N1271      O1282   1.262       .  A
N1273      O1279   1.262       .  A
N1273      O1280   1.262       .  A
C1283      C1284   1.399       .  A
C1283      C1288   1.405       .  A
C1283      H1293   1.084       .  S
C1284      C1289   1.482       .  S
C1284      C1285   1.405       .  A
C1285      C1286   1.401   1_556  A
C1285      N1290   1.429   1_556  S
C1286      C1287   1.406   1_554  A
C1286      H1291   1.077       .  S
C1287      C1288   1.418       .  A
C1288      N1292   1.430       .  S
C1289      C1294   1.407       .  A
C1289      C1298   1.402   1_556  A
N1290      O1305   1.262       .  A
N1290      O1306   1.262   1_554  A
N1292      O1303   1.262       .  A
N1292      O1304   1.261       .  A
C1294      C1295   1.397       .  A
C1294      N1299   1.424       .  S
C1295      C1296   1.399       .  A
C1295      H1300   1.084       .  S
C1296      C1297   1.414   1_556  A
C1297      C1298   1.405       .  A
C1297      N1301   1.429       .  S
C1298      H1302   1.084       .  S
N1299      O1309   1.262       .  A
N1299      O1310   1.262       .  A
N1301      O1307   1.262       .  A
N1301      O1308   1.262       .  A
C1311      C1312   1.404   1_655  A
C1311      C1316   1.410       .  A
C1311      H1321   1.083       .  S
C1312      C1317   1.491       .  S
C1312      C1313   1.410       .  A
C1313      C1314   1.399       .  A
C1313      N1318   1.431       .  S
C1314      C1315   1.406       .  A
C1314      H1319   1.083       .  S
C1315      C1316   1.422   1_455  A
C1316      N1320   1.443       .  S
C1317      C1322   1.414       .  A
C1317      C1326   1.404   1_455  A
N1318      O1333   1.262       .  A
N1318      O1334   1.262       .  A
N1320      O1331   1.263       .  A
N1320      O1332   1.262   1_554  A
C1322      C1323   1.404       .  A
C1322      N1327   1.432       .  S
C1323      C1324   1.404       .  A
C1323      H1328   1.084       .  S
C1324      C1325   1.411   1_455  A
C1325      C1326   1.401       .  A
C1325      N1329   1.429       .  S
C1326      H1330   1.084       .  S
N1327      O1337   1.262       .  A
N1327      O1338   1.262       .  A
N1329      O1335   1.262       .  A
N1329      O1336   1.262       .  A
C1339      C1340   1.405       .  A
C1339      C1344   1.404       .  A
C1339      H1349   1.083       .  S
C1340      C1345   1.498       .  S
C1340      C1341   1.412       .  A
C1341      C1342   1.402       .  A
C1341      N1346   1.429       .  S
C1342      C1343   1.408       .  A
C1342      H1347   1.083       .  S
C1343      C1344   1.418       .  A
C1344      N1348   1.436   1_655  S
C1345      C1350   1.415       .  A
C1345      C1354   1.406       .  A
N1346      O1361   1.262       .  A
N1346      O1362   1.261       .  A
N1348      O1359   1.263       .  A
N1348      O1360   1.261       .  A
C1350      C1351   1.398       .  A
C1350      N1355   1.430       .  S
C1351      C1352   1.404       .  A
C1351      H1356   1.083       .  S
C1352      C1353   1.418       .  A
C1353      C1354   1.406       .  A
C1353      N1357   1.432       .  S
C1354      H1358   1.082       .  S
N1355      O1365   1.262       .  A
N1355      O1366   1.262       .  A
N1357      O1363   1.262       .  A
N1357      O1364   1.262       .  A
C1367      C1368   1.398       .  A
C1367      C1372   1.405       .  A
C1367      H1377   1.084       .  S
C1368      C1373   1.479       .  S
C1368      C1369   1.406   1_554  A
C1369      C1370   1.400       .  A
C1369      N1374   1.429       .  S
C1370      C1371   1.407   1_556  A
C1370      H1375   1.083       .  S
C1371      C1372   1.419       .  A
C1372      N1376   1.433       .  S
C1373      C1378   1.409   1_554  A
C1373      C1382   1.401       .  A
N1374      O1389   1.262       .  A
N1374      O1390   1.262       .  A
N1376      O1387   1.261   1_655  A
N1376      O1388   1.262       .  A
C1378      C1379   1.403       .  A
C1378      N1383   1.429       .  S
C1379      C1380   1.403   1_556  A
C1379      H1384   1.084       .  S
C1380      C1381   1.408       .  A
C1381      C1382   1.400       .  A
C1381      N1385   1.430       .  S
C1382      H1386   1.082       .  S
N1383      O1393   1.262   1_556  A
N1383      O1394   1.262       .  A
N1385      O1391   1.262       .  A
N1385      O1392   1.262       .  A
C1395      C1396   1.400       .  A
C1395      C1400   1.407       .  A
C1395      H1405   1.084       .  S
C1396      C1401   1.484       .  S
C1396      C1397   1.405       .  A
C1397      C1398   1.400       .  A
C1397      N1402   1.428   1_455  S
C1398      C1399   1.407       .  A
C1398      H1403   1.083       .  S
C1399      C1400   1.419       .  A
C1400      N1404   1.430       .  S
C1401      C1406   1.407       .  A
C1401      C1410   1.401   1_455  A
N1402      O1417   1.262       .  A
N1402      O1418   1.261   1_655  A
N1404      O1415   1.260       .  A
N1404      O1416   1.263       .  A
C1406      C1407   1.402       .  A
C1406      N1411   1.429       .  S
C1407      C1408   1.410       .  A
C1407      H1412   1.084       .  S
C1408      C1409   1.417   1_455  A
C1409      C1410   1.406       .  A
C1409      N1413   1.428       .  S
C1410      H1414   1.084       .  S
N1411      O1421   1.262       .  A
N1411      O1422   1.262       .  A
N1413      O1419   1.262       .  A
N1413      O1420   1.262       .  A
C1423      C1424   1.402       .  A
C1423      C1428   1.398       .  A
C1423      H1433   1.084       .  S
C1424      C1429   1.483       .  S
C1424      C1425   1.412       .  A
C1425      C1426   1.403       .  A
C1425      N1430   1.431       .  S
C1426      C1427   1.404       .  A
C1426      H1431   1.084       .  S
C1427      C1428   1.410       .  A
C1428      N1432   1.429       .  S
C1429      C1434   1.409       .  A
C1429      C1438   1.408       .  A
N1430      O1445   1.262       .  A
N1430      O1446   1.262       .  A
N1432      O1443   1.262       .  A
N1432      O1444   1.262       .  A
C1434      C1435   1.395       .  A
C1434      N1439   1.432       .  S
C1435      C1436   1.401       .  A
C1435      H1440   1.081       .  S
C1436      C1437   1.406       .  A
C1437      C1438   1.407       .  A
C1437      N1441   1.431       .  S
C1438      H1442   1.084       .  S
N1439      O1449   1.263       .  A
N1439      O1450   1.262       .  A
N1441      O1447   1.262       .  A
N1441      O1448   1.262       .  A
C1451      C1452   1.407       .  A
C1451      C1456   1.409       .  A
C1451      H1461   1.083       .  S
C1452      C1457   1.510       .  S
C1452      C1453   1.420       .  A
C1453      C1454   1.410       .  A
C1453      N1458   1.428       .  S
C1454      C1455   1.403       .  A
C1454      H1459   1.084       .  S
C1455      C1456   1.414       .  A
C1456      N1460   1.429       .  S
C1457      C1462   1.417       .  A
C1457      C1466   1.405       .  A
N1458      O1473   1.262       .  A
N1458      O1474   1.262       .  A
N1460      O1471   1.262       .  A
N1460      O1472   1.262       .  A
C1462      C1463   1.413       .  A
C1462      N1467   1.429       .  S
C1463      C1464   1.407       .  A
C1463      H1468   1.084       .  S
C1464      C1465   1.416       .  A
C1465      C1466   1.408       .  A
C1465      N1469   1.429       .  S
C1466      H1470   1.082       .  S
N1467      O1477   1.262       .  A
N1467      O1478   1.262       .  A
N1469      O1475   1.262       .  A
N1469      O1476   1.262       .  A
C1479      C1480   1.412       .  A
C1479      C1484   1.417       .  A
C1479      H1489   1.083       .  S
C1480      C1485   1.491       .  S
C1480      C1481   1.403       .  A
C1481      C1482   1.391       .  A
C1481      N1486   1.431       .  S
C1482      C1483   1.412       .  A
C1482      H1487   1.082       .  S
C1483      C1484   1.412       .  A
C1484      N1488   1.428       .  S
C1485      C1490   1.409       .  A
C1485      C1494   1.404       .  A
N1486      O1501   1.262       .  A
N1486      O1502   1.262       .  A
N1488      O1499   1.262       .  A
N1488      O1500   1.262       .  A
C1490      C1491   1.407       .  A
C1490      N1495   1.427       .  S
C1491      C1492   1.406       .  A
C1491      H1496   1.084       .  S
C1492      C1493   1.415       .  A
C1493      C1494   1.403       .  A
C1493      N1497   1.430       .  S
C1494      H1498   1.084       .  S
N1495      O1505   1.262       .  A
N1495      O1506   1.262       .  A
N1497      O1503   1.262       .  A
N1497      O1504   1.262       .  A
C1507      C1508   1.411       .  A
C1507      C1512   1.415       .  A
C1507      H1517   1.083       .  S
C1508      C1513   1.505       .  S
C1508      C1509   1.413       .  A
C1509      C1510   1.403       .  A
C1509      N1514   1.433       .  S
C1510      C1511   1.409       .  A
C1510      H1515   1.084       .  S
C1511      C1512   1.412       .  A
C1512      N1516   1.428       .  S
C1513      C1518   1.413       .  A
C1513      C1522   1.406       .  A
N1514      O1529   1.262       .  A
N1514      O1530   1.262       .  A
N1516      O1527   1.262       .  A
N1516      O1528   1.262       .  A
C1518      C1519   1.406       .  A
C1518      N1523   1.433       .  S
C1519      C1520   1.412       .  A
C1519      H1524   1.082       .  S
C1520      C1521   1.420       .  A
C1521      C1522   1.412       .  A
C1521      N1525   1.428       .  S
C1522      H1526   1.084       .  S
N1523      O1533   1.262       .  A
N1523      O1534   1.263       .  A
N1525      O1531   1.262       .  A
N1525      O1532   1.262       .  A
C1535      C1536   1.406       .  A
C1535      C1540   1.411       .  A
C1535      H1545   1.084       .  S
C1536      C1541   1.493       .  S
C1536      C1537   1.403       .  A
C1537      C1538   1.400       .  A
C1537      N1542   1.425       .  S
C1538      C1539   1.410       .  A
C1538      H1543   1.083       .  S
C1539      C1540   1.417       .  A
C1540      N1544   1.428       .  S
C1541      C1546   1.405       .  A
C1541      C1550   1.411       .  A
N1542      O1557   1.261       .  A
N1542      O1558   1.261       .  A
N1544      O1555   1.262       .  A
N1544      O1556   1.262       .  A
C1546      C1547   1.396       .  A
C1546      N1551   1.429       .  S
C1547      C1548   1.405       .  A
C1547      H1552   1.081       .  S
C1548      C1549   1.410       .  A
C1549      C1550   1.414       .  A
C1549      N1553   1.428       .  S
C1550      H1554   1.083       .  S
N1551      O1561   1.261       .  A
N1551      O1562   1.262       .  A
N1553      O1559   1.262       .  A
N1553      O1560   1.262       .  A
C1563      C1564   1.407       .  A
C1563      C1568   1.408       .  A
C1563      H1573   1.083       .  S
C1564      C1569   1.490       .  S
C1564      C1565   1.410       .  A
C1565      C1566   1.394       .  A
C1565      N1570   1.426       .  S
C1566      C1567   1.402       .  A
C1566      H1571   1.084       .  S
C1567      C1568   1.412       .  A
C1568      N1572   1.427       .  S
C1569      C1574   1.413       .  A
C1569      C1578   1.394       .  A
N1570      O1585   1.262       .  A
N1570      O1586   1.261       .  A
N1572      O1583   1.262       .  A
N1572      O1584   1.262       .  A
C1574      C1575   1.411       .  A
C1574      N1579   1.428       .  S
C1575      C1576   1.408       .  A
C1575      H1580   1.083       .  S
C1576      C1577   1.425       .  A
C1577      C1578   1.392       .  A
C1577      N1581   1.430       .  S
C1578      H1582   1.084       .  S
N1579      O1589   1.262       .  A
N1579      O1590   1.262       .  A
N1581      O1587   1.262       .  A
N1581      O1588   1.261       .  A
C1591      C1592   1.400   1_545  A
C1591      C1596   1.409       .  A
C1591      H1601   1.084       .  S
C1592      C1597   1.485       .  S
C1592      C1593   1.404       .  A
C1593      C1594   1.401       .  A
C1593      N1598   1.429       .  S
C1594      C1595   1.412   1_565  A
C1594      H1599   1.083       .  S
C1595      C1596   1.423       .  A
C1596      N1600   1.435       .  S
C1597      C1602   1.411       .  A
C1597      C1606   1.401   1_565  A
N1598      O1613   1.262       .  A
N1598      O1614   1.262       .  A
N1600      O1611   1.263       .  A
N1600      O1612   1.261   1_556  A
C1602      C1603   1.407       .  A
C1602      N1607   1.429       .  S
C1603      C1604   1.404       .  A
C1603      H1608   1.084       .  S
C1604      C1605   1.409   1_565  A
C1605      C1606   1.402       .  A
C1605      N1609   1.429       .  S
C1606      H1610   1.084       .  S
N1607      O1617   1.262       .  A
N1607      O1618   1.262       .  A
N1609      O1615   1.262   1_545  A
N1609      O1616   1.262       .  A
C1619      C1620   1.404       .  A
C1619      C1624   1.400       .  A
C1619      H1629   1.082       .  S
C1620      C1625   1.490       .  S
C1620      C1621   1.414       .  A
C1621      C1622   1.395       .  A
C1621      N1626   1.429       .  S
C1622      C1623   1.402       .  A
C1622      H1627   1.083       .  S
C1623      C1624   1.416       .  A
C1624      N1628   1.435       .  S
C1625      C1630   1.415       .  A
C1625      C1634   1.403   1_554  A
N1626      O1641   1.262   1_554  A
N1626      O1642   1.261       .  A
N1628      O1639   1.261   1_565  A
N1628      O1640   1.263   1_565  A
C1630      C1631   1.396       .  A
C1630      N1635   1.430       .  S
C1631      C1632   1.404       .  A
C1631      H1636   1.083       .  S
C1632      C1633   1.416   1_554  A
C1633      C1634   1.399       .  A
C1633      N1637   1.431       .  S
C1634      H1638   1.082       .  S
N1635      O1645   1.262       .  A
N1635      O1646   1.261       .  A
N1637      O1643   1.262       .  A
N1637      O1644   1.262       .  A
C1647      C1648   1.398   1_556  A
C1647      C1652   1.405       .  A
C1647      H1657   1.084       .  S
C1648      C1653   1.487       .  S
C1648      C1649   1.408       .  A
C1649      C1650   1.406       .  A
C1649      N1654   1.430       .  S
C1650      C1651   1.409       .  A
C1650      H1655   1.082       .  S
C1651      C1652   1.419   1_554  A
C1652      N1656   1.432       .  S
C1653      C1658   1.409       .  A
C1653      C1662   1.403   1_554  A
N1654      O1669   1.262       .  A
N1654      O1670   1.261       .  A
N1656      O1667   1.262       .  A
N1656      O1668   1.261   1_545  A
C1658      C1659   1.402       .  A
C1658      N1663   1.430       .  S
C1659      C1660   1.408       .  A
C1659      H1664   1.084       .  S
C1660      C1661   1.414   1_554  A
C1661      C1662   1.405       .  A
C1661      N1665   1.428       .  S
C1662      H1666   1.084       .  S
N1663      O1673   1.261       .  A
N1663      O1674   1.262       .  A
N1665      O1671   1.262       .  A
N1665      O1672   1.262       .  A
C1675      C1676   1.402       .  A
C1675      C1680   1.403       .  A
C1675      H1685   1.084       .  S
C1676      C1681   1.483       .  S
C1676      C1677   1.405       .  A
C1677      C1678   1.400       .  A
C1677      N1682   1.431       .  S
C1678      C1679   1.410       .  A
C1678      H1683   1.083   1_556  S
C1679      C1680   1.419       .  A
C1680      N1684   1.434       .  S
C1681      C1686   1.404       .  A
C1681      C1690   1.403       .  A
N1682      O1697   1.262       .  A
N1682      O1698   1.262       .  A
N1684      O1695   1.263       .  A
N1684      O1696   1.261       .  A
C1686      C1687   1.395       .  A
C1686      N1691   1.430       .  S
C1687      C1688   1.411       .  A
C1687      H1692   1.082       .  S
C1688      C1689   1.421       .  A
C1689      C1690   1.405       .  A
C1689      N1693   1.431       .  S
C1690      H1694   1.084       .  S
N1691      O1701   1.262       .  A
N1691      O1702   1.262       .  A
N1693      O1699   1.262       .  A
N1693      O1700   1.263       .  A
C1703      C1704   1.405       .  A
C1703      C1708   1.407       .  A
C1703      H1713   1.083       .  S
C1704      C1709   1.491       .  S
C1704      C1705   1.410       .  A
C1705      C1706   1.404       .  A
C1705      N1710   1.428       .  S
C1706      C1707   1.403       .  A
C1706      H1711   1.084       .  S
C1707      C1708   1.411       .  A
C1708      N1712   1.429       .  S
C1709      C1714   1.406       .  A
C1709      C1718   1.399       .  A
N1710      O1725   1.262       .  A
N1710      O1726   1.262       .  A
N1712      O1723   1.262       .  A
N1712      O1724   1.262       .  A
C1714      C1715   1.406       .  A
C1714      N1719   1.428       .  S
C1715      C1716   1.411       .  A
C1715      H1720   1.083       .  S
C1716      C1717   1.422       .  A
C1717      C1718   1.408       .  A
C1717      N1721   1.429       .  S
C1718      H1722   1.084       .  S
N1719      O1729   1.262       .  A
N1719      O1730   1.262       .  A
N1721      O1727   1.262       .  A
N1721      O1728   1.259       .  A
C1731      C1732   1.402       .  A
C1731      C1736   1.401       .  A
C1731      H1741   1.095       .  S
C1732      C1737   1.490       .  S
C1732      C1733   1.415   1_545  A
C1733      C1734   1.389       .  A
C1733      N1738   1.429       .  S
C1734      C1735   1.394   1_565  A
C1734      H1739   1.135       .  S
C1735      C1736   1.417       .  A
C1736      N1740   1.437       .  S
C1737      C1742   1.411       .  A
C1737      C1746   1.401   1_545  A
N1738      O1753   1.263       .  A
N1738      O1754   1.261   1_565  A
N1740      O1751   1.262       .  A
N1740      O1752   1.263       .  A
C1742      C1743   1.397       .  A
C1742      N1747   1.432       .  S
C1743      C1744   1.412   1_545  A
C1743      H1748   1.082       .  S
C1744      C1745   1.421       .  A
C1745      C1746   1.400       .  A
C1745      N1749   1.427       .  S
C1746      H1750   1.084       .  S
N1747      O1757   1.262       .  A
N1747      O1758   1.262       .  A
N1749      O1755   1.261       .  A
N1749      O1756   1.262       .  A
C1759      C1760   1.397       .  A
C1759      C1764   1.401       .  A
C1759      H1769   1.084       .  S
C1760      C1765   1.476       .  S
C1760      C1761   1.410       .  A
C1761      C1762   1.401       .  A
C1761      N1766   1.429       .  S
C1762      C1763   1.402       .  A
C1762      H1767   1.084       .  S
C1763      C1764   1.418       .  A
C1764      N1768   1.430       .  S
C1765      C1770   1.407       .  A
C1765      C1774   1.399       .  A
N1766      O1781   1.260       .  A
N1766      O1782   1.261       .  A
N1768      O1779   1.262       .  A
N1768      O1780   1.262       .  A
C1770      C1771   1.397       .  A
C1770      N1775   1.428       .  S
C1771      C1772   1.399       .  A
C1771      H1776   1.083       .  S
C1772      C1773   1.417       .  A
C1773      C1774   1.402       .  A
C1773      N1777   1.431       .  S
C1774      H1778   1.084       .  S
N1775      O1785   1.262       .  A
N1775      O1786   1.261       .  A
N1777      O1783   1.262       .  A
N1777      O1784   1.262       .  A
C1787      C1788   1.405       .  A
C1787      C1792   1.406       .  A
C1787      H1797   1.084       .  S
C1788      C1793   1.499       .  S
C1788      C1789   1.420       .  A
C1789      C1790   1.406       .  A
C1789      N1794   1.430       .  S
C1790      C1791   1.399       .  A
C1790      H1795   1.084       .  S
C1791      C1792   1.410       .  A
C1792      N1796   1.432       .  S
C1793      C1798   1.411       .  A
C1793      C1802   1.406       .  A
N1794      O1809   1.261       .  A
N1794      O1810   1.261       .  A
N1796      O1807   1.261       .  A
N1796      O1808   1.262       .  A
C1798      C1799   1.405       .  A
C1798      N1803   1.434       .  S
C1799      C1800   1.408       .  A
C1799      H1804   1.083       .  S
C1800      C1801   1.421       .  A
C1801      C1802   1.415       .  A
C1801      N1805   1.434       .  S
C1802      H1806   1.084       .  S
N1803      O1813   1.263       .  A
N1803      O1814   1.262       .  A
N1805      O1811   1.262       .  A
N1805      O1812   1.263       .  A
C1815      C1816   1.398       .  A
C1815      C1820   1.399       .  A
C1815      H1825   1.084       .  S
C1816      C1821   1.483       .  S
C1816      C1817   1.409       .  A
C1817      C1818   1.405       .  A
C1817      N1822   1.428       .  S
C1818      C1819   1.405       .  A
C1818      H1823   1.083       .  S
C1819      C1820   1.408       .  A
C1820      N1824   1.423       .  S
C1821      C1826   1.411       .  A
C1821      C1830   1.400       .  A
N1822      O1837   1.261       .  A
N1822      O1838   1.262       .  A
N1824      O1835   1.262       .  A
N1824      O1836   1.261       .  A
C1826      C1827   1.403       .  A
C1826      N1831   1.429       .  S
C1827      C1828   1.403       .  A
C1827      H1832   1.084       .  S
C1828      C1829   1.416       .  A
C1829      C1830   1.403       .  A
C1829      N1833   1.429       .  S
C1830      H1834   1.084       .  S
N1831      O1841   1.261       .  A
N1831      O1842   1.262       .  A
N1833      O1839   1.262       .  A
N1833      O1840   1.262       .  A
C1843      C1844   1.397       .  A
C1843      C1848   1.393       .  A
C1843      H1853   1.084       .  S
C1844      C1849   1.485       .  S
C1844      C1845   1.413       .  A
C1845      C1846   1.409       .  A
C1845      N1850   1.430       .  S
C1846      C1847   1.406       .  A
C1846      H1851   1.083       .  S
C1847      C1848   1.420       .  A
C1848      N1852   1.431       .  S
C1849      C1854   1.410       .  A
C1849      C1858   1.401       .  A
N1850      O1865   1.262       .  A
N1850      O1866   1.262       .  A
N1852      O1863   1.261       .  A
N1852      O1864   1.262       .  A
C1854      C1855   1.405       .  A
C1854      N1859   1.429       .  S
C1855      C1856   1.408       .  A
C1855      H1860   1.083       .  S
C1856      C1857   1.419       .  A
C1857      C1858   1.398       .  A
C1857      N1861   1.432       .  S
C1858      H1862   1.084       .  S
N1859      O1869   1.262       .  A
N1859      O1870   1.262       .  A
N1861      O1867   1.262       .  A
N1861      O1868   1.262       .  A
C1871      C1872   1.399       .  A
C1871      C1876   1.401       .  A
C1871      H1881   1.084       .  S
C1872      C1877   1.493       .  S
C1872      C1873   1.412       .  A
C1873      C1874   1.417       .  A
C1873      N1878   1.429       .  S
C1874      C1875   1.411       .  A
C1874      H1879   1.083       .  S
C1875      C1876   1.411       .  A
C1876      N1880   1.426       .  S
C1877      C1882   1.409       .  A
C1877      C1886   1.405       .  A
N1878      O1893   1.262       .  A
N1878      O1894   1.262       .  A
N1880      O1891   1.262       .  A
N1880      O1892   1.261       .  A
C1882      C1883   1.408       .  A
C1882      N1887   1.429       .  S
C1883      C1884   1.411       .  A
C1883      H1888   1.084       .  S
C1884      C1885   1.413       .  A
C1885      C1886   1.406       .  A
C1885      N1889   1.429       .  S
C1886      H1890   1.084       .  S
N1887      O1897   1.262       .  A
N1887      O1898   1.262       .  A
N1889      O1895   1.262       .  A
N1889      O1896   1.262       .  A
C1899      C1900   1.393       .  A
C1899      C1904   1.395       .  A
C1899      H1909   1.084       .  S
C1900      C1905   1.482       .  S
C1900      C1901   1.410       .  A
C1901      C1902   1.411       .  A
C1901      N1906   1.427       .  S
C1902      C1903   1.408       .  A
C1902      H1907   1.083       .  S
C1903      C1904   1.415       .  A
C1904      N1908   1.423       .  S
C1905      C1910   1.409       .  A
C1905      C1914   1.403       .  A
N1906      O1921   1.261       .  A
N1906      O1922   1.262       .  A
N1908      O1919   1.262       .  A
N1908      O1920   1.261       .  A
C1910      C1911   1.401       .  A
C1910      N1915   1.429       .  S
C1911      C1912   1.403       .  A
C1911      H1916   1.084       .  S
C1912      C1913   1.412       .  A
C1913      C1914   1.406       .  A
C1913      N1917   1.431       .  S
C1914      H1918   1.084       .  S
N1915      O1925   1.262       .  A
N1915      O1926   1.262       .  A
N1917      O1923   1.262       .  A
N1917      O1924   1.262       .  A
C1927      C1928   1.404       .  A
C1927      C1932   1.408       .  A
C1927      H1937   1.084       .  S
C1928      C1933   1.490       .  S
C1928      C1929   1.409       .  A
C1929      C1930   1.399       .  A
C1929      N1934   1.429       .  S
C1930      C1931   1.408       .  A
C1930      H1935   1.082       .  S
C1931      C1932   1.417       .  A
C1932      N1936   1.430       .  S
C1933      C1938   1.407       .  A
C1933      C1942   1.405       .  A
N1934      O1949   1.262       .  A
N1934      O1950   1.262       .  A
N1936      O1947   1.262       .  A
N1936      O1948   1.262       .  A
C1938      C1939   1.405       .  A
C1938      N1943   1.428       .  S
C1939      C1940   1.408       .  A
C1939      H1944   1.084       .  S
C1940      C1941   1.413       .  A
C1941      C1942   1.407       .  A
C1941      N1945   1.428       .  S
C1942      H1946   1.084       .  S
N1943      O1953   1.262       .  A
N1943      O1954   1.262       .  A
N1945      O1951   1.262       .  A
N1945      O1952   1.262       .  A
C1955      C1956   1.397       .  A
C1955      C1960   1.401       .  A
C1955      H1965   1.084       .  S
C1956      C1961   1.470       .  S
C1956      C1957   1.407       .  A
C1957      C1958   1.395       .  A
C1957      N1962   1.431       .  S
C1958      C1959   1.405       .  A
C1958      H1963   1.084       .  S
C1959      C1960   1.417       .  A
C1960      N1964   1.428       .  S
C1961      C1966   1.406       .  A
C1961      C1970   1.406       .  A
N1962      O1977   1.262       .  A
N1962      O1978   1.262       .  A
N1964      O1975   1.262       .  A
N1964      O1976   1.262       .  A
C1966      C1967   1.390       .  A
C1966      N1971   1.430       .  S
C1967      C1968   1.396       .  A
C1967      H1972   1.082       .  S
C1968      C1969   1.403       .  A
C1969      C1970   1.402       .  A
C1969      N1973   1.429       .  S
C1970      H1974   1.084       .  S
N1971      O1981   1.262       .  A
N1971      O1982   1.262       .  A
N1973      O1979   1.262       .  A
N1973      O1980   1.260       .  A
C1983      C1984   1.408       .  A
C1983      C1988   1.414       .  A
C1983      H1993   1.083       .  S
C1984      C1989   1.504       .  S
C1984      C1985   1.412       .  A
C1985      C1986   1.409       .  A
C1985      N1990   1.430       .  S
C1986      C1987   1.406       .  A
C1986      H1991   1.082       .  S
C1987      C1988   1.413       .  A
C1988      N1992   1.431       .  S
C1989      C1994   1.413       .  A
C1989      C1998   1.407       .  A
N1990      O2005   1.262       .  A
N1990      O2006   1.261       .  A
N1992      O2003   1.261       .  A
N1992      O2004   1.263       .  A
C1994      C1995   1.411       .  A
C1994      N1999   1.428       .  S
C1995      C1996   1.409       .  A
C1995      H2000   1.084       .  S
C1996      C1997   1.411       .  A
C1997      C1998   1.406       .  A
C1997      N2001   1.428       .  S
C1998      H2002   1.084       .  S
N1999      O2009   1.262       .  A
N1999      O2010   1.262       .  A
N2001      O2007   1.262       .  A
N2001      O2008   1.261       .  A
C2011      C2012   1.414       .  A
C2011      C2016   1.415       .  A
C2011      H2021   1.081       .  S
C2012      C2017   1.515       .  S
C2012      C2013   1.420       .  A
C2013      C2014   1.400       .  A
C2013      N2018   1.434       .  S
C2014      C2015   1.404       .  A
C2014      H2019   1.084       .  S
C2015      C2016   1.412       .  A
C2016      N2020   1.428       .  S
C2017      C2022   1.417       .  A
C2017      C2026   1.406       .  A
N2018      O2033   1.261       .  A
N2018      O2034   1.262       .  A
N2020      O2031   1.262       .  A
N2020      O2032   1.262       .  A
C2022      C2023   1.411       .  A
C2022      N2027   1.428       .  S
C2023      C2024   1.411       .  A
C2023      H2028   1.083       .  S
C2024      C2025   1.422       .  A
C2025      C2026   1.405       .  A
C2025      N2029   1.430       .  S
C2026      H2030   1.083       .  S
N2027      O2037   1.262       .  A
N2027      O2038   1.261       .  A
N2029      O2035   1.262       .  A
N2029      O2036   1.263       .  A
C2039      C2040   1.405       .  A
C2039      C2044   1.411       .  A
C2039      H2049   1.083       .  S
C2040      C2045   1.496       .  S
C2040      C2041   1.414       .  A
C2041      C2042   1.404       .  A
C2041      N2046   1.429       .  S
C2042      C2043   1.402       .  A
C2042      H2047   1.084       .  S
C2043      C2044   1.412       .  A
C2044      N2048   1.427       .  S
C2045      C2050   1.406       .  A
C2045      C2054   1.411       .  A
N2046      O2061   1.262       .  A
N2046      O2062   1.262       .  A
N2048      O2059   1.262       .  A
N2048      O2060   1.262       .  A
C2050      C2051   1.401       .  A
C2050      N2055   1.431       .  S
C2051      C2052   1.410       .  A
C2051      H2056   1.085       .  S
C2052      C2053   1.410       .  A
C2053      C2054   1.416       .  A
C2053      N2057   1.428       .  S
C2054      H2058   1.083       .  S
N2055      O2065   1.262       .  A
N2055      O2066   1.262       .  A
N2057      O2063   1.262       .  A
N2057      O2064   1.262       .  A
C2067      C2068   1.405       .  A
C2067      C2072   1.409       .  A
C2067      H2077   1.084       .  S
C2068      C2073   1.486       .  S
C2068      C2069   1.406       .  A
C2069      C2070   1.397       .  A
C2069      N2074   1.429       .  S
C2070      C2071   1.407       .  A
C2070      H2075   1.085       .  S
C2071      C2072   1.413       .  A
C2072      N2076   1.428       .  S
C2073      C2078   1.407       .  A
C2073      C2082   1.406       .  A
N2074      O2089   1.262       .  A
N2074      O2090   1.262       .  A
N2076      O2087   1.262       .  A
N2076      O2088   1.262       .  A
C2078      C2079   1.401       .  A
C2078      N2083   1.430       .  S
C2079      C2080   1.407       .  A
C2079      H2084   1.084       .  S
C2080      C2081   1.411       .  A
C2081      C2082   1.405       .  A
C2081      N2085   1.429       .  S
C2082      H2086   1.084       .  S
N2083      O2093   1.262       .  A
N2083      O2094   1.262       .  A
N2085      O2091   1.262       .  A
N2085      O2092   1.262       .  A
C2095      C2096   1.407       .  A
C2095      C2100   1.407       .  A
C2095      H2105   1.084       .  S
C2096      C2101   1.492       .  S
C2096      C2097   1.409       .  A
C2097      C2098   1.404       .  A
C2097      N2102   1.431       .  S
C2098      C2099   1.409       .  A
C2098      H2103   1.084       .  S
C2099      C2100   1.409       .  A
C2100      N2104   1.427       .  S
C2101      C2106   1.414       .  A
C2101      C2110   1.397       .  A
N2102      O2117   1.262       .  A
N2102      O2118   1.262       .  A
N2104      O2115   1.262       .  A
N2104      O2116   1.262       .  A
C2106      C2107   1.416       .  A
C2106      N2111   1.432       .  S
C2107      C2108   1.410       .  A
C2107      H2112   1.083       .  S
C2108      C2109   1.415       .  A
C2109      C2110   1.399       .  A
C2109      N2113   1.427       .  S
C2110      H2114   1.084       .  S
N2111      O2121   1.263       .  A
N2111      O2122   1.262       .  A
N2113      O2119   1.262       .  A
N2113      O2120   1.259       .  A
C2123      C2124   1.410       .  A
C2123      C2128   1.415       .  A
C2123      H2133   1.083       .  S
C2124      C2129   1.489       .  S
C2124      C2125   1.405       .  A
C2125      C2126   1.395       .  A
C2125      N2130   1.431       .  S
C2126      C2127   1.411       .  A
C2126      H2131   1.084       .  S
C2127      C2128   1.411       .  A
C2128      N2132   1.428       .  S
C2129      C2134   1.412       .  A
C2129      C2138   1.399       .  A
N2130      O2145   1.262       .  A
N2130      O2146   1.262       .  A
N2132      O2143   1.262       .  A
N2132      O2144   1.262       .  A
C2134      C2135   1.409       .  A
C2134      N2139   1.429       .  S
C2135      C2136   1.407       .  A
C2135      H2140   1.084       .  S
C2136      C2137   1.418       .  A
C2137      C2138   1.403       .  A
C2137      N2141   1.432       .  S
C2138      H2142   1.084       .  S
N2139      O2149   1.262       .  A
N2139      O2150   1.262       .  A
N2141      O2147   1.262       .  A
N2141      O2148   1.262       .  A
C2151      C2152   1.406       .  A
C2151      C2156   1.408       .  A
C2151      H2161   1.083       .  S
C2152      C2157   1.501       .  S
C2152      C2153   1.420       .  A
C2153      C2154   1.404       .  A
C2153      N2158   1.429       .  S
C2154      C2155   1.398       .  A
C2154      H2159   1.084       .  S
C2155      C2156   1.412       .  A
C2156      N2160   1.429       .  S
C2157      C2162   1.417       .  A
C2157      C2166   1.400       .  A
N2158      O2173   1.262       .  A
N2158      O2174   1.261       .  A
N2160      O2171   1.262       .  A
N2160      O2172   1.262       .  A
C2162      C2163   1.414       .  A
C2162      N2167   1.429       .  S
C2163      C2164   1.408       .  A
C2163      H2168   1.084       .  S
C2164      C2165   1.417       .  A
C2165      C2166   1.401       .  A
C2165      N2169   1.430       .  S
C2166      H2170   1.083       .  S
N2167      O2177   1.262       .  A
N2167      O2178   1.262       .  A
N2169      O2175   1.261       .  A
N2169      O2176   1.262       .  A
C2179      C2180   1.406       .  A
C2179      C2184   1.407       .  A
C2179      H2189   1.084       .  S
C2180      C2185   1.481       .  S
C2180      C2181   1.404       .  A
C2181      C2182   1.396       .  A
C2181      N2186   1.427       .  S
C2182      C2183   1.405       .  A
C2182      H2187   1.084       .  S
C2183      C2184   1.407       .  A
C2184      N2188   1.427       .  S
C2185      C2190   1.408       .  A
C2185      C2194   1.405       .  A
N2186      O2201   1.262       .  A
N2186      O2202   1.261       .  A
N2188      O2199   1.261       .  A
N2188      O2200   1.262       .  A
C2190      C2191   1.396       .  A
C2190      N2195   1.427       .  S
C2191      C2192   1.398       .  A
C2191      H2196   1.084       .  S
C2192      C2193   1.409       .  A
C2193      C2194   1.404       .  A
C2193      N2197   1.429       .  S
C2194      H2198   1.083       .  S
N2195      O2205   1.261       .  A
N2195      O2206   1.262       .  A
N2197      O2203   1.262       .  A
N2197      O2204   1.262       .  A
C2207      C2208   1.404       .  A
C2207      C2212   1.404       .  A
C2207      H2217   1.084       .  S
C2208      C2213   1.483       .  S
C2208      C2209   1.408       .  A
C2209      C2210   1.398       .  A
C2209      N2214   1.428       .  S
C2210      C2211   1.401       .  A
C2210      H2215   1.084       .  S
C2211      C2212   1.410       .  A
C2212      N2216   1.429       .  S
C2213      C2218   1.416       .  A
C2213      C2222   1.403       .  A
N2214      O2229   1.262       .  A
N2214      O2230   1.261       .  A
N2216      O2227   1.262       .  A
N2216      O2228   1.262       .  A
C2218      C2219   1.399       .  A
C2218      N2223   1.428       .  S
C2219      C2220   1.396       .  A
C2219      H2224   1.084       .  S
C2220      C2221   1.407       .  A
C2221      C2222   1.401       .  A
C2221      N2225   1.430       .  S
C2222      H2226   1.084       .  S
N2223      O2233   1.260       .  A
N2223      O2234   1.262       .  A
N2225      O2231   1.262       .  A
N2225      O2232   1.262       .  A
C2235      C2236   1.408       .  A
C2235      C2240   1.416       .  A
C2235      H2245   1.083       .  S
C2236      C2241   1.494       .  S
C2236      C2237   1.407       .  A
C2237      C2238   1.398       .  A
C2237      N2242   1.426       .  S
C2238      C2239   1.401       .  A
C2238      H2243   1.084       .  S
C2239      C2240   1.415       .  A
C2240      N2244   1.443       .  S
C2241      C2246   1.408       .  A
C2241      C2250   1.406       .  A
N2242      O2257   1.262       .  A
N2242      O2258   1.261       .  A
N2244      O2255   1.263       .  A
N2244      O2256   1.263       .  A
C2246      C2247   1.405       .  A
C2246      N2251   1.428       .  S
C2247      C2248   1.411       .  A
C2247      H2252   1.084       .  S
C2248      C2249   1.415       .  A
C2249      C2250   1.404       .  A
C2249      N2253   1.429       .  S
C2250      H2254   1.083       .  S
N2251      O2261   1.262       .  A
N2251      O2262   1.262       .  A
N2253      O2259   1.262       .  A
N2253      O2260   1.262       .  A
C2263      C2264   1.397       .  A
C2263      C2268   1.397       .  A
C2263      H2273   1.083       .  S
C2264      C2269   1.489       .  S
C2264      C2265   1.410       .  A
C2265      C2266   1.406       .  A
C2265      N2270   1.429       .  S
C2266      C2267   1.410       .  A
C2266      H2271   1.083       .  S
C2267      C2268   1.419       .  A
C2268      N2272   1.429       .  S
C2269      C2274   1.417       .  A
C2269      C2278   1.405       .  A
N2270      O2285   1.262       .  A
N2270      O2286   1.261       .  A
N2272      O2283   1.263       .  A
N2272      O2284   1.262       .  A
C2274      C2275   1.398       .  A
C2274      N2279   1.430       .  S
C2275      C2276   1.397       .  A
C2275      H2280   1.084       .  S
C2276      C2277   1.409       .  A
C2277      C2278   1.405       .  A
C2277      N2281   1.428       .  S
C2278      H2282   1.083       .  S
N2279      O2289   1.262       .  A
N2279      O2290   1.260       .  A
N2281      O2287   1.262       .  A
N2281      O2288   1.262       .  A
C2291      C2292   1.408       .  A
C2291      C2296   1.409       .  A
C2291      H2301   1.083       .  S
C2292      C2297   1.505       .  S
C2292      C2293   1.411       .  A
C2293      C2294   1.408       .  A
C2293      N2298   1.426       .  S
C2294      C2295   1.406       .  A
C2294      H2299   1.084       .  S
C2295      C2296   1.412       .  A
C2296      N2300   1.430       .  S
C2297      C2302   1.411       .  A
C2297      C2306   1.409       .  A
N2298      O2313   1.261       .  A
N2298      O2314   1.261       .  A
N2300      O2311   1.261       .  A
N2300      O2312   1.262       .  A
C2302      C2303   1.402       .  A
C2302      N2307   1.426       .  S
C2303      C2304   1.405       .  A
C2303      H2308   1.084       .  S
C2304      C2305   1.414       .  A
C2305      C2306   1.413       .  A
C2305      N2309   1.429       .  S
C2306      H2310   1.082       .  S
N2307      O2317   1.261       .  A
N2307      O2318   1.262       .  A
N2309      O2315   1.262       .  A
N2309      O2316   1.262       .  A
C2319      C2320   1.401       .  A
C2319      C2324   1.400       .  A
C2319      H2329   1.084       .  S
C2320      C2325   1.501       .  S
C2320      C2321   1.414       .  A
C2321      C2322   1.412       .  A
C2321      N2326   1.428       .  S
C2322      C2323   1.409       .  A
C2322      H2327   1.083       .  S
C2323      C2324   1.422       .  A
C2324      N2328   1.430       .  S
C2325      C2330   1.413       .  A
C2325      C2334   1.410       .  A
N2326      O2341   1.262       .  A
N2326      O2342   1.261       .  A
N2328      O2339   1.261       .  A
N2328      O2340   1.261       .  A
C2330      C2331   1.398       .  A
C2330      N2335   1.429       .  S
C2331      C2332   1.403       .  A
C2331      H2336   1.084       .  S
C2332      C2333   1.414       .  A
C2333      C2334   1.413       .  A
C2333      N2337   1.429       .  S
C2334      H2338   1.083       .  S
N2335      O2345   1.262       .  A
N2335      O2346   1.262       .  A
N2337      O2343   1.262       .  A
N2337      O2344   1.262       .  A
C2347      C2348   1.410       .  A
C2347      C2352   1.411       .  A
C2347      H2357   1.083       .  S
C2348      C2353   1.492       .  S
C2348      C2349   1.411       .  A
C2349      C2350   1.394       .  A
C2349      N2354   1.434       .  S
C2350      C2351   1.407       .  A
C2350      H2355   1.084       .  S
C2351      C2352   1.411       .  A
C2352      N2356   1.429       .  S
C2353      C2358   1.414       .  A
C2353      C2362   1.400       .  A
N2354      O2369   1.262       .  A
N2354      O2370   1.262       .  A
N2356      O2367   1.261       .  A
N2356      O2368   1.262       .  A
C2358      C2359   1.405       .  A
C2358      N2363   1.434       .  S
C2359      C2360   1.407       .  A
C2359      H2364   1.082       .  S
C2360      C2361   1.422       .  A
C2361      C2362   1.403       .  A
C2361      N2365   1.432       .  S
C2362      H2366   1.084       .  S
N2363      O2373   1.262       .  A
N2363      O2374   1.262       .  A
N2365      O2371   1.262       .  A
N2365      O2372   1.263       .  A
C2375      C2376   1.406       .  A
C2375      C2380   1.405       .  A
C2375      H2385   1.083       .  S
C2376      C2381   1.497       .  S
C2376      C2377   1.413       .  A
C2377      C2378   1.406       .  A
C2377      N2382   1.429       .  S
C2378      C2379   1.404       .  A
C2378      H2383   1.084       .  S
C2379      C2380   1.410       .  A
C2380      N2384   1.428       .  S
C2381      C2386   1.413       .  A
C2381      C2390   1.402       .  A
N2382      O2397   1.262       .  A
N2382      O2398   1.262       .  A
N2384      O2395   1.262       .  A
N2384      O2396   1.262       .  A
C2386      C2387   1.407       .  A
C2386      N2391   1.427       .  S
C2387      C2388   1.402       .  A
C2387      H2392   1.082       .  S
C2388      C2389   1.415       .  A
C2389      C2390   1.404       .  A
C2389      N2393   1.429       .  S
C2390      H2394   1.083       .  S
N2391      O2401   1.261       .  A
N2391      O2402   1.262       .  A
N2393      O2399   1.262       .  A
N2393      O2400   1.261       .  A
C2403      C2404   1.397       .  A
C2403      C2408   1.398       .  A
C2403      H2413   1.084       .  S
C2404      C2409   1.480       .  S
C2404      C2405   1.408       .  A
C2405      C2406   1.405       .  A
C2405      N2410   1.428       .  S
C2406      C2407   1.406       .  A
C2406      H2411   1.084       .  S
C2407      C2408   1.419       .  A
C2408      N2412   1.433       .  S
C2409      C2414   1.410       .  A
C2409      C2418   1.398       .  A
N2410      O2425   1.262       .  A
N2410      O2426   1.262       .  A
N2412      O2423   1.261       .  A
N2412      O2424   1.262       .  A
C2414      C2415   1.404       .  A
C2414      N2419   1.430       .  S
C2415      C2416   1.407       .  A
C2415      H2420   1.084       .  S
C2416      C2417   1.415       .  A
C2417      C2418   1.401       .  A
C2417      N2421   1.429       .  S
C2418      H2422   1.084       .  S
N2419      O2429   1.262       .  A
N2419      O2430   1.262       .  A
N2421      O2427   1.262       .  A
N2421      O2428   1.262       .  A
