geometry optimzed in LAMMPS
_audit_creation_date              2020-11-30 
_audit_creation_method            'lammps2cif' 
_symmetry_space_group_name_H-M    'P1' 
_symmetry_Int_Tables_number       1 
_symmetry_cell_setting            triclinic 
loop_ 
_symmetry_equiv_pos_as_xyz 
  x,y,z 
_cell_length_a                    36.22429934 
_cell_length_b                    36.21469371567837 
_cell_length_c                    36.13496747856231 
_cell_angle_alpha                 90.79769657106982 
_cell_angle_beta                  90.06899405975548 
_cell_angle_gamma                 90.41640843783262 
loop_ 
_atom_site_label 
_atom_site_type_symbol 
_atom_site_fract_x 
_atom_site_fract_y 
_atom_site_fract_z 
_atom_site_charge 
C1          C  0.39377071  0.67458933  0.10439176     0.85700
C2          C  0.37199154  0.64239731  0.08628824    -0.54600
C3          C  0.35497976  0.61904755  0.11022735     0.08600
C4          C  0.36346964  0.62866873  0.15128110     0.19500
C5          C  0.36734051  0.69290911  0.13090507    -0.55300
C6          C  0.35171815  0.67001291  0.15622968     0.08700
C7          C  0.42128835  0.65498972  0.12949739    -0.54800
C8          C  0.40649098  0.62960692  0.15299815     0.09300
H9          H  0.37191882  0.63623795  0.05691446     0.13800
H10         H  0.35028914  0.60902722  0.17042219    -0.00500
H11         H  0.36253062  0.72245973  0.13083782     0.14100
H12         H  0.45088210  0.65930607  0.12715551     0.13900
C13         C  0.73624908  0.30261635  0.09339129     0.85700
C14         C  0.70732470  0.32254849  0.11668371    -0.54600
C15         C  0.69132342  0.30167568  0.14317531     0.08600
C16         C  0.70585421  0.26167557  0.14438721     0.19500
C17         C  0.76390252  0.28671017  0.12097278    -0.55300
C18         C  0.74852367  0.26603656  0.14847183     0.08700
C19         C  0.71728018  0.26714617  0.07865195    -0.54800
C20         C  0.70013069  0.24593305  0.10463565     0.09300
H21         H  0.69960107  0.35108226  0.11215879     0.13800
H22         H  0.69256299  0.24476991  0.16578473    -0.00500
H23         H  0.79357003  0.28882055  0.11714663     0.14100
H24         H  0.71809435  0.25868750  0.04983217     0.13900
C25         C  0.75134579  0.61214088  0.11006275     0.85700
C26         C  0.72487383  0.64250119  0.09745870    -0.54600
C27         C  0.70378876  0.65771864  0.12455988     0.08600
C28         C  0.71461175  0.64464441  0.16368317     0.19500
C29         C  0.77597994  0.63389078  0.13790045    -0.55300
C30         C  0.75698259  0.65117017  0.16619383     0.08700
C31         C  0.72779396  0.58623311  0.13380449    -0.54800
C32         C  0.70936905  0.60230536  0.16297927     0.09300
H33         H  0.72202545  0.65097136  0.06891330     0.13800
H34         H  0.69963854  0.65873223  0.18576520    -0.00500
H35         H  0.80522103  0.63778446  0.13370833     0.14100
H36         H  0.72526542  0.55704912  0.12693922     0.13900
C37         C  0.38623582  0.26597532  0.10821629     0.85700
C38         C  0.40151381  0.29192456  0.13824376    -0.54600
C39         C  0.37607467  0.31209373  0.15676571     0.08600
C40         C  0.33561041  0.30095885  0.14656597     0.19500
C41         C  0.36134362  0.24044041  0.13073918    -0.55300
C42         C  0.33490347  0.25823500  0.15147375     0.08700
C43         C  0.36010003  0.28890294  0.08509910    -0.54800
C44         C  0.33210387  0.30606498  0.10383227     0.09300
H45         H  0.43072421  0.29462819  0.14460835     0.13800
H46         H  0.31490124  0.31558386  0.16321036    -0.00500
H47         H  0.36560731  0.21087382  0.13221362     0.14100
H48         H  0.36385887  0.29114380  0.05539248     0.13900
O49         O  0.58878376  0.48738494  0.24279753    -0.73800
O50         O  0.49611664  0.42313808  0.23932869    -0.74800
O51         O  0.57498306  0.40767063  0.24025104    -0.63400
O52         O  0.51074293  0.50215856  0.23909996    -0.71800
O53         O  0.51229991  0.49651150  0.17816081    -0.71300
O54         O  0.57775780  0.41222530  0.17925829    -0.62600
O55         O  0.50106917  0.42078705  0.17825078    -0.75100
O56         O  0.58911406  0.48848821  0.18139772    -0.73900
Cu57       Cu  0.54269363  0.45494424  0.24293345     1.04600
Cu58       Cu  0.54519832  0.45439762  0.17757476     1.04300
C59         C  0.60265473  0.49893285  0.21250427     0.92400
C60         C  0.48365235  0.41247643  0.20778856     0.91600
C61         C  0.58596057  0.39528937  0.20861111     0.83700
C62         C  0.50198678  0.51407176  0.20693054     0.90000
C63         C  0.39044061  0.26217254  0.79967323     0.85700
C64         C  0.36525058  0.29246416  0.81359358    -0.54600
C65         C  0.34266033  0.30711831  0.78766457     0.08600
C66         C  0.34612854  0.28812575  0.74863754     0.19500
C67         C  0.36481017  0.23292280  0.78186939    -0.55300
C68         C  0.34105456  0.24625140  0.75570566     0.08700
C69         C  0.40989799  0.27822165  0.76584367    -0.54800
C70         C  0.38768859  0.29159692  0.73842602     0.09300
H71         H  0.36697029  0.30344330  0.84172233     0.13800
H72         H  0.32636580  0.29814392  0.72785069    -0.00500
H73         H  0.36647348  0.20369196  0.78771802     0.14100
H74         H  0.43972859  0.27892365  0.76395391     0.13900
C75         C  0.68477054  0.25152642  0.78307829     0.85700
C76         C  0.66760001  0.27485996  0.75172162    -0.54600
C77         C  0.69299408  0.29266868  0.72947613     0.08600
C78         C  0.73331375  0.28608303  0.74146374     0.19500
C79         C  0.71161699  0.22621374  0.76308119    -0.55300
C80         C  0.73686853  0.24347152  0.74164611     0.08700
C81         C  0.70821774  0.28072309  0.80354417    -0.54800
C82         C  0.73376875  0.29851602  0.78279964     0.09300
H83         H  0.63857429  0.28081770  0.74914913     0.13800
H84         H  0.75442673  0.29978720  0.72411990    -0.00500
H85         H  0.71089815  0.19635549  0.76600705     0.14100
H86         H  0.70344285  0.28834758  0.83235867     0.13900
C87         C  0.68427119  0.61065518  0.74749028     0.85700
C88         C  0.66872828  0.63772111  0.77556350    -0.54600
C89         C  0.69424732  0.65791755  0.79469887     0.08600
C90         C  0.73492637  0.65071844  0.78158777     0.19500
C91         C  0.70870612  0.63402945  0.72139436    -0.55300
C92         C  0.73497104  0.65533640  0.73921177     0.08700
C93         C  0.71285051  0.58894824  0.76958024    -0.54800
C94         C  0.74069157  0.60870720  0.78621586     0.09300
H95         H  0.63951418  0.63828605  0.78238887     0.13800
H96         H  0.75555919  0.66936654  0.79425758    -0.00500
H97         H  0.70756142  0.63263084  0.69150979     0.14100
H98         H  0.70955868  0.55962794  0.77365946     0.13900
C99         C  0.41864393  0.66483588  0.78991248     0.85700
C100        C  0.43279980  0.63808045  0.75980622    -0.54600
C101        C  0.40646625  0.61594702  0.74399650     0.08600
C102        C  0.36653628  0.62639701  0.75616904     0.19500
C103        C  0.39135660  0.68837293  0.76774069    -0.55300
C104        C  0.36366160  0.66851165  0.75075106     0.08700
C105        C  0.39453570  0.64109303  0.81520108    -0.54800
C106        C  0.36601810  0.62196224  0.79871443     0.09300
H107        H  0.46151839  0.63577809  0.75184437     0.13800
H108        H  0.34454422  0.61214493  0.74041565    -0.00500
H109        H  0.39303913  0.71818578  0.76586708     0.14100
H110        H  0.40079574  0.63896378  0.84447948     0.13900
O111        O  0.28102900  0.50734619  0.91295732    -0.73800
O112        O  0.26625317  0.42265097  0.98291756    -0.74800
O113        O  0.27669454  0.50052781  0.99258504    -0.63400
O114        O  0.27331530  0.42972634  0.90256389    -0.71800
O115        O  0.33342483  0.42214729  0.90953670    -0.71300
O116        O  0.33737865  0.49423355  0.99360710    -0.62600
O117        O  0.32700627  0.41694997  0.98804376    -0.75100
O118        O  0.34172841  0.49959694  0.91534439    -0.73900
Cu119      Cu  0.27206687  0.46521689  0.94766388     1.04600
Cu120      Cu  0.33681973  0.45790692  0.95177186     1.04300
C121        C  0.31350676  0.51622845  0.90254050     0.92400
C122        C  0.29430709  0.40732159  0.99742596     0.91600
C123        C  0.30817146  0.50825229  0.00728392     0.83700
C124        C  0.30389919  0.41593336  0.89118254     0.90000
O125        O  0.60859350  0.74411327  0.93387912    -0.73800
O126        O  0.51638606  0.75252447  0.99550354    -0.74800
O127        O  0.59300160  0.74621174  0.01358374    -0.63400
O128        O  0.53163659  0.74877345  0.91718784    -0.71800
O129        O  0.52633742  0.68790257  0.92073952    -0.71300
O130        O  0.58808928  0.68541954  0.01028543    -0.62600
O131        O  0.51246435  0.69125599  0.99643230    -0.75100
O132        O  0.60167602  0.68318651  0.93353369    -0.73900
Cu133      Cu  0.56273812  0.75032902  0.96512176     1.04600
Cu134      Cu  0.55712056  0.68512230  0.96540156     1.04300
C135        C  0.61832349  0.71212030  0.92232670     0.92400
C136        C  0.50010323  0.72295078  0.00555886     0.91600
C137        C  0.59904369  0.71439096  0.02754880     0.83700
C138        C  0.51984838  0.71779274  0.90387978     0.90000
O139        O  0.75932488  0.42597990  0.97302440    -0.73800
O140        O  0.77100444  0.50401407  0.89814695    -0.74800
O141        O  0.76054446  0.42750085  0.89634870    -0.63400
O142        O  0.76816910  0.50207697  0.97555240    -0.71800
O143        O  0.82891790  0.49864912  0.97866712    -0.71300
O144        O  0.82083584  0.42004798  0.89372547    -0.62600
O145        O  0.83204603  0.49837851  0.89889116    -0.75100
O146        O  0.81996376  0.41789700  0.97452194    -0.73900
Cu147      Cu  0.76307193  0.46511380  0.93586352     1.04600
Cu148      Cu  0.82793510  0.45832793  0.93677400     1.04300
C149        C  0.78743832  0.40892704  0.98503259     0.92400
C150        C  0.80289145  0.51325892  0.88629695     0.91600
C151        C  0.78837756  0.41269179  0.88097409     0.83700
C152        C  0.79853862  0.51369666  0.98918324     0.90000
O153        O  0.50559244  0.18158349  0.91817468    -0.73800
O154        O  0.58400047  0.15879814  0.99508394    -0.74800
O155        O  0.50708736  0.17655734  0.99790565    -0.63400
O156        O  0.58208326  0.16603853  0.91408251    -0.71800
O157        O  0.59578662  0.22554084  0.92185552    -0.71300
O158        O  0.52080823  0.23602035  0.99865561    -0.62600
O159        O  0.59571630  0.21890003  0.00018251    -0.75100
O160        O  0.52048100  0.24071073  0.92297440    -0.73900
Cu161      Cu  0.54438709  0.16830104  0.95615742     1.04600
Cu162      Cu  0.55886096  0.23199115  0.96112302     1.04300
C163        C  0.50091415  0.21498948  0.90828292     0.92400
C164        C  0.60096460  0.18584898  0.01085298     0.91600
C165        C  0.50204041  0.20919790  0.01102190     0.83700
C166        C  0.59934383  0.19528280  0.90404006     0.90000
O167        O  0.49649239  0.48037428  0.65750762    -0.73800
O168        O  0.58061706  0.40598406  0.64566288    -0.74800
O169        O  0.49946322  0.40113991  0.64512841    -0.63400
O170        O  0.57621096  0.48465256  0.65982113    -0.71800
O171        O  0.57092563  0.47438975  0.71944188    -0.71300
O172        O  0.50197519  0.39135286  0.70555438    -0.62600
O173        O  0.58037713  0.39853127  0.70645500    -0.75100
O174        O  0.49563845  0.46840313  0.71711766    -0.73900
Cu175      Cu  0.53816048  0.44314922  0.64955194     1.04600
Cu176      Cu  0.53718483  0.43263268  0.71381919     1.04300
C177        C  0.48335644  0.48672568  0.68983015     0.92400
C178        C  0.59466785  0.39188008  0.67474396     0.91600
C179        C  0.48846731  0.38367840  0.67385043     0.83700
C180        C  0.58496193  0.49285922  0.69337025     0.90000
C181        C  0.67891140  0.10762747  0.65692956     0.85700
C182        C  0.70332057  0.08903228  0.62769895    -0.54600
C183        C  0.72266987  0.11257723  0.60588260     0.08600
C184        C  0.71589531  0.15394535  0.61593237     0.19500
C185        C  0.70393481  0.13361459  0.67879889    -0.55300
C186        C  0.72423219  0.15731955  0.65793342     0.08700
C187        C  0.65464028  0.13252264  0.63298153    -0.54800
C188        C  0.67303356  0.15797215  0.61167391     0.09300
H189        H  0.70257198  0.05950232  0.62201209     0.13800
H190        H  0.73329738  0.17372301  0.60088709    -0.00500
H191        H  0.70801844  0.13090954  0.70845298     0.14100
H192        H  0.62542270  0.12676748  0.62983982     0.13900
C193        C  0.71701527  0.11582360  0.24362954     0.85700
C194        C  0.69223589  0.13816355  0.26982185    -0.54600
C195        C  0.70977482  0.16325847  0.29199599     0.08600
C196        C  0.75232365  0.16429756  0.28569367     0.19500
C197        C  0.73950229  0.14387787  0.22216963    -0.55300
C198        C  0.75753275  0.16946430  0.24345297     0.08700
C199        C  0.74466264  0.09879017  0.27080166    -0.54800
C200        C  0.76435384  0.12386832  0.29202838     0.09300
H201        H  0.66284279  0.13252597  0.27263004     0.13800
H202        H  0.76722191  0.18537886  0.30261040    -0.00500
H203        H  0.74004272  0.14431002  0.19209040     0.14100
H204        H  0.74664265  0.06955847  0.27595355     0.13900
C205        C  0.40814969  0.12882892  0.64837863     0.85700
C206        C  0.41984303  0.15988189  0.62255407    -0.54600
C207        C  0.39165781  0.17624598  0.60394963     0.08600
C208        C  0.35244573  0.16354003  0.61788323     0.19500
C209        C  0.38209561  0.14777828  0.67635664    -0.55300
C210        C  0.35346319  0.16669962  0.66088401     0.08700
C211        C  0.38169393  0.10464016  0.62519248    -0.54800
C212        C  0.35114931  0.12121458  0.61115188     0.09300
H213        H  0.44855849  0.16594799  0.61640366     0.13800
H214        H  0.32922545  0.17928357  0.60638149    -0.00500
H215        H  0.38244722  0.14331169  0.70576971     0.14100
H216        H  0.38676961  0.07540086  0.62068707     0.13900
C217        C  0.33768995  0.12162065  0.30474391     0.85700
C218        C  0.36185532  0.15441694  0.31858614    -0.54600
C219        C  0.38138774  0.17289302  0.29182411     0.08600
C220        C  0.37390270  0.15667690  0.25297001     0.19500
C221        C  0.31273698  0.14155687  0.27660975    -0.55300
C222        C  0.33142393  0.15988406  0.24914662     0.08700
C223        C  0.36359281  0.09730221  0.28163414    -0.54800
C224        C  0.38298322  0.11522901  0.25525907     0.09300
H225        H  0.36308082  0.16248595  0.34757289     0.13800
H226        H  0.38928965  0.16972527  0.23062621    -0.00500
H227        H  0.28382212  0.14626924  0.28176827     0.14100
H228        H  0.36824483  0.06836550  0.28757114     0.13900
O229        O  0.49791152  0.19244066  0.39064013    -0.73800
O230        O  0.56611562  0.17997866  0.47697098    -0.74800
O231        O  0.48937373  0.18885187  0.46792547    -0.63400
O232        O  0.57423041  0.18156611  0.39963183    -0.71800
O233        O  0.58577103  0.24139420  0.40463237    -0.71300
O234        O  0.49359549  0.24967347  0.47149599    -0.62600
O235        O  0.57211487  0.24092545  0.48222223    -0.75100
O236        O  0.50678528  0.25317779  0.39320966    -0.73900
Cu237      Cu  0.53160803  0.18384336  0.43358922     1.04600
Cu238      Cu  0.53981606  0.24864514  0.43787712     1.04300
C239        C  0.49134603  0.22473345  0.37859295     0.92400
C240        C  0.57991536  0.20854164  0.49307589     0.91600
C241        C  0.47716122  0.21950314  0.48035350     0.83700
C242        C  0.59493266  0.20912575  0.39269347     0.90000
C243        C  0.71393729  0.81569184  0.25984810     0.85700
C244        C  0.74853328  0.83271141  0.27843680    -0.54600
C245        C  0.76925633  0.80932049  0.29930362     0.08600
C246        C  0.75397368  0.76922995  0.29755465     0.19500
C247        C  0.73135772  0.78479379  0.23592669    -0.55300
C248        C  0.75281966  0.76036821  0.25532696     0.08700
C249        C  0.69298518  0.79577171  0.29009304    -0.54800
C250        C  0.71306701  0.77163729  0.30979212     0.09300
H251        H  0.75611807  0.86150114  0.27512640     0.13800
H252        H  0.76946194  0.74944076  0.31406986    -0.00500
H253        H  0.72999476  0.78411850  0.20595202     0.14100
H254        H  0.66398774  0.80080871  0.29591966     0.13900
C255        C  0.38457292  0.82172895  0.26034799     0.85700
C256        C  0.40373271  0.80093308  0.29126861    -0.54600
C257        C  0.38224569  0.77691962  0.31015309     0.08600
C258        C  0.34127047  0.77619313  0.29645755     0.19500
C259        C  0.36591505  0.79258211  0.23591624    -0.55300
C260        C  0.34314741  0.76863449  0.25396106     0.08700
C261        C  0.35296081  0.84067651  0.28161580    -0.54800
C262        C  0.32945955  0.81736329  0.30038426     0.09300
H263        H  0.43219303  0.80640994  0.29935952     0.13800
H264        H  0.32335404  0.75588437  0.31040822    -0.00500
H265        H  0.37086383  0.79079621  0.20628803     0.14100
H266        H  0.35156931  0.87041345  0.28499611     0.13900
C267        C  0.31690206  0.78330816  0.60157555     0.85700
C268        C  0.34610486  0.76075093  0.58082766    -0.54600
C269        C  0.37006040  0.74251889  0.60251561     0.08600
C270        C  0.36217024  0.74720607  0.64430426     0.19500
C271        C  0.29762748  0.75567302  0.62662978    -0.55300
C272        C  0.32114631  0.73708297  0.64938887     0.08700
C273        C  0.34060539  0.80769996  0.62798888    -0.54800
C274        C  0.36452639  0.78939833  0.65106758     0.09300
H275        H  0.35284980  0.76447534  0.55195589     0.13800
H276        H  0.37913441  0.72987275  0.66231481    -0.00500
H277        H  0.26779175  0.75369073  0.62898958     0.14100
H278        H  0.34106968  0.83748040  0.62523431     0.13900
C279        C  0.75843581  0.81131854  0.60535469     0.85700
C280        C  0.74103924  0.83350119  0.63640772    -0.54600
C281        C  0.71822822  0.81549795  0.65993924     0.08600
C282        C  0.71723937  0.77310010  0.65090119     0.19500
C283        C  0.78010138  0.78134456  0.62692323    -0.55300
C284        C  0.75857305  0.76110882  0.65121354     0.08700
C285        C  0.72784964  0.78863199  0.58695096    -0.54800
C286        C  0.70629454  0.76854036  0.60967175     0.09300
H287        H  0.74509034  0.86322479  0.63669238     0.13800
H288        H  0.69813812  0.75769132  0.66851822    -0.00500
H289        H  0.80882217  0.77477401  0.62343378     0.14100
H290        H  0.72379025  0.78829015  0.55709745     0.13900
O291        O  0.78370672  0.00795468  0.39657114    -0.73800
O292        O  0.77365741  0.92480000  0.46743461    -0.74800
O293        O  0.76341590  0.00144175  0.47071055    -0.63400
O294        O  0.79146448  0.92902143  0.39258176    -0.71800
O295        O  0.84972192  0.93063136  0.41143209    -0.71300
O296        O  0.82090047  0.01420188  0.48525253    -0.62600
O297        O  0.82996843  0.93575096  0.48861582    -0.75100
O298        O  0.84347288  0.01241592  0.40962297    -0.73900
Cu299      Cu  0.77638829  0.96557953  0.43105897     1.04600
Cu300      Cu  0.83847052  0.97339800  0.44899453     1.04300
C301        C  0.81485964  0.02429503  0.39299715     0.92400
C302        C  0.79920578  0.91861219  0.49091099     0.91600
C303        C  0.78633053  0.02048566  0.48969130     0.83700
C304        C  0.82394132  0.91591562  0.39142377     0.90000
O305        O  0.57523319  0.90087606  0.66971574    -0.73800
O306        O  0.50109318  0.97822389  0.66193641    -0.74800
O307        O  0.57675966  0.97907866  0.67213443    -0.63400
O308        O  0.49780771  0.90064920  0.66247290    -0.71800
O309        O  0.49117968  0.90308061  0.72349365    -0.71300
O310        O  0.57025942  0.98113208  0.73321280    -0.62600
O311        O  0.49323030  0.98406859  0.72175474    -0.75100
O312        O  0.57249038  0.90233068  0.73094551    -0.73900
Cu313      Cu  0.53774950  0.93936784  0.66479679     1.04600
Cu314      Cu  0.53115806  0.94211689  0.72977281     1.04300
C315        C  0.58824685  0.89147757  0.70078101     0.92400
C316        C  0.48732195  0.99592071  0.68890353     0.91600
C317        C  0.58523358  0.99299650  0.70381956     0.83700
C318        C  0.48165322  0.88993498  0.69186600     0.90000
O319        O  0.31982072  0.99516399  0.50378665    -0.73800
O320        O  0.30776581  0.91862601  0.42241682    -0.74800
O321        O  0.31694541  0.99653185  0.42587470    -0.63400
O322        O  0.31289855  0.91692195  0.49993076    -0.71800
O323        O  0.25183682  0.92022849  0.50178439    -0.71300
O324        O  0.25685417  0.00623434  0.42912962    -0.62600
O325        O  0.24703826  0.92639375  0.42313281    -0.75100
O326        O  0.25886112  0.00007865  0.50737538    -0.73900
Cu327      Cu  0.31631134  0.95663753  0.46292538     1.04600
Cu328      Cu  0.25137215  0.96339546  0.46553365     1.04300
C329        C  0.29109484  0.01011544  0.51789437     0.92400
C330        C  0.27557426  0.91033032  0.41011491     0.91600
C331        C  0.28880866  0.01533649  0.41680900     0.83700
C332        C  0.28202767  0.90459219  0.51133203     0.90000
O333        O  0.59434638  0.01215053  0.22678405    -0.73800
O334        O  0.51216473  0.93976382  0.24223798    -0.74800
O335        O  0.58903309  0.93624510  0.23808112    -0.63400
O336        O  0.51696489  0.01595399  0.23279086    -0.71800
O337        O  0.51046561  0.00960813  0.17216530    -0.71300
O338        O  0.59027169  0.92881342  0.17727189    -0.62600
O339        O  0.50984557  0.93027012  0.18139196    -0.75100
O340        O  0.58972184  0.00605072  0.16566302    -0.73900
Cu341      Cu  0.55316430  0.97631986  0.23679858     1.04600
Cu342      Cu  0.54966414  0.96821392  0.17172709     1.04300
C343        C  0.60540006  0.01999371  0.19421985     0.92400
C344        C  0.49827480  0.92337222  0.21399254     0.91600
C345        C  0.60318026  0.92136680  0.20943763     0.83700
C346        C  0.50213767  0.02611439  0.20271357     0.90000
O347        O  0.59005753  0.75407807  0.42612063    -0.73800
O348        O  0.51054171  0.75018791  0.49966760    -0.74800
O349        O  0.58706986  0.74604531  0.50331520    -0.63400
O350        O  0.51187466  0.75839091  0.42375475    -0.71800
O351        O  0.50494551  0.69794351  0.41911255    -0.71300
O352        O  0.58651807  0.68505784  0.49643889    -0.62600
O353        O  0.50847794  0.68945203  0.49757790    -0.75100
O354        O  0.58797178  0.69353600  0.41784884    -0.73900
Cu355      Cu  0.55010910  0.75395194  0.46311156     1.04600
Cu356      Cu  0.54684573  0.68911908  0.45689435     1.04300
C357        C  0.60360799  0.72481405  0.41190580     0.92400
C358        C  0.49758211  0.71998597  0.51175552     0.91600
C359        C  0.59815446  0.71426179  0.51314190     0.83700
C360        C  0.49369658  0.73053566  0.41146799     0.90000
C361        C  0.87403259  0.29647420  0.64958100     0.85700
C362        C  0.85449627  0.31078621  0.61526574    -0.54600
C363        C  0.83510272  0.28483758  0.59577507     0.08600
C364        C  0.83785502  0.24552955  0.61174939     0.19500
C365        C  0.84434912  0.27646827  0.67174410    -0.55300
C366        C  0.82622901  0.24927797  0.65252008     0.08700
C367        C  0.89826622  0.26566068  0.63275991    -0.54800
C368        C  0.87987360  0.23805481  0.61315601     0.09300
H369        H  0.85877034  0.33807010  0.60411365     0.13800
H370        H  0.82039058  0.22491341  0.59747968    -0.00500
H371        H  0.84077766  0.28063826  0.70136266     0.14100
H372        H  0.92812214  0.26748430  0.63438565     0.13900
C373        C  0.92112937  0.28873518  0.22760820     0.85700
C374        C  0.93522117  0.26186027  0.25742581    -0.54600
C375        C  0.90851061  0.24421142  0.27780947     0.08600
C376        C  0.86935408  0.25723087  0.26726052     0.19500
C377        C  0.89306696  0.26623190  0.20479094    -0.55300
C378        C  0.86535197  0.25064895  0.22504426     0.08700
C379        C  0.89766472  0.31562811  0.25031362    -0.54800
C380        C  0.87178612  0.29974799  0.27224341     0.09300
H381        H  0.96365344  0.26092215  0.26620520     0.13800
H382        H  0.84649824  0.24389226  0.28234996    -0.00500
H383        H  0.89323721  0.26555597  0.17491890     0.14100
H384        H  0.90406412  0.34498716  0.25232504     0.13900
C385        C  0.90717060  0.66371277  0.30338021     0.85700
C386        C  0.92787811  0.64097311  0.27356222    -0.54600
C387        C  0.90597777  0.62072343  0.24941556     0.08600
C388        C  0.86420396  0.62469216  0.25874913     0.19500
C389        C  0.87942197  0.68675934  0.28209465    -0.55300
C390        C  0.85668224  0.66688930  0.25877434     0.08700
C391        C  0.88422237  0.63397341  0.32243484    -0.54800
C392        C  0.86179545  0.61353737  0.30015605     0.09300
H393        H  0.95764011  0.63801962  0.27381694     0.13800
H394        H  0.84502756  0.60938851  0.24018757    -0.00500
H395        H  0.87722107  0.71645449  0.28604012     0.14100
H396        H  0.88785646  0.62694093  0.35135594     0.13900
C397        C  0.82885699  0.58615006  0.61819626     0.85700
C398        C  0.85605883  0.56902136  0.64630511    -0.54600
C399        C  0.87864667  0.59372593  0.66509579     0.08600
C400        C  0.87178200  0.63414910  0.65307123     0.19500
C401        C  0.80781215  0.61526637  0.64043999    -0.55300
C402        C  0.82950604  0.64071648  0.65830127     0.08700
C403        C  0.85507464  0.60802200  0.59298536    -0.54800
C404        C  0.87796785  0.63255287  0.61054282     0.09300
H405        H  0.86070575  0.53964769  0.64825092     0.13800
H406        H  0.88898178  0.65519801  0.66763268    -0.00500
H407        H  0.77785897  0.61675748  0.64057739     0.14100
H408        H  0.85792802  0.60181790  0.56360833     0.13900
O409        O  0.01992282  0.70895699  0.51818107    -0.73800
O410        O  0.09713902  0.71781024  0.43462166    -0.74800
O411        O  0.01909015  0.71925938  0.43881627    -0.63400
O412        O  0.09998319  0.71049927  0.51442442    -0.71800
O413        O  0.09746396  0.64936030  0.50979899    -0.71300
O414        O  0.02114348  0.65865397  0.42894463    -0.62600
O415        O  0.09816499  0.65679702  0.43332763    -0.75100
O416        O  0.01884713  0.64917587  0.50596979    -0.73900
Cu417      Cu  0.05914832  0.71649474  0.47703023     1.04600
Cu418      Cu  0.05888130  0.65161648  0.46945745     1.04300
C419        C  0.00665870  0.67660272  0.52442922     0.92400
C420        C  0.10853803  0.68742919  0.42007582     0.91600
C421        C  0.00850941  0.69046512  0.42095353     0.83700
C422        C  0.11148873  0.67878764  0.52404643     0.90000
O423        O  0.07854747  0.47623685  0.75830193    -0.73800
O424        O  0.99548969  0.40464290  0.73797895    -0.74800
O425        O  0.07507380  0.39745009  0.74759987    -0.63400
O426        O  0.00070230  0.48353883  0.74518268    -0.71800
O427        O  0.01035661  0.48765355  0.68491336    -0.71300
O428        O  0.08141691  0.40399740  0.68709869    -0.62600
O429        O  0.00336727  0.41040460  0.67745987    -0.75100
O430        O  0.08709725  0.48153149  0.69773015    -0.73900
Cu431      Cu  0.03707579  0.44010553  0.74951177     1.04600
Cu432      Cu  0.04589315  0.44593054  0.68487890     1.04300
C433        C  0.09568298  0.49030747  0.73109896     0.92400
C434        C  0.98561925  0.39698696  0.70481606     0.91600
C435        C  0.09081511  0.38823764  0.71696601     0.83700
C436        C  0.99412763  0.49908704  0.71407562     0.90000
O437        O  0.11074988  0.43188319  0.17880394    -0.73800
O438        O  0.02204991  0.50111497  0.16967069    -0.74800
O439        O  0.10047827  0.50973295  0.17716148    -0.63400
O440        O  0.03245645  0.42169236  0.16923812    -0.71800
O441        O  0.02632305  0.42169271  0.23034911    -0.71300
O442        O  0.09365812  0.51048884  0.23819334    -0.62600
O443        O  0.01618751  0.49985999  0.23074038    -0.75100
O444        O  0.10275090  0.43338029  0.23950298    -0.73900
Cu445      Cu  0.06648073  0.46610038  0.17144141     1.04600
Cu446      Cu  0.05935428  0.46642085  0.23664942     1.04300
C447        C  0.12088134  0.42229622  0.21130496     0.92400
C448        C  0.00561981  0.51166602  0.19941050     0.91600
C449        C  0.10847405  0.52340496  0.20892633     0.83700
C450        C  0.01948397  0.40721162  0.19856509     0.90000
O451        O  0.07592696  0.16120518  0.49369174    -0.73800
O452        O  0.99339564  0.16288724  0.41804587    -0.74800
O453        O  0.07166333  0.16566794  0.41451431    -0.63400
O454        O  0.99665937  0.15825973  0.49716311    -0.71800
O455        O  0.99599310  0.21950316  0.50148669    -0.71300
O456        O  0.06877960  0.22676029  0.41879781    -0.62600
O457        O  0.99166341  0.22397243  0.42333823    -0.75100
O458        O  0.07395160  0.22244824  0.49664124    -0.73900
Cu459      Cu  0.03441625  0.15972843  0.45588232     1.04600
Cu460      Cu  0.03249099  0.22515613  0.46041291     1.04300
C461        C  0.08835222  0.19202192  0.50638509     0.92400
C462        C  0.98054365  0.19398225  0.40793397     0.91600
C463        C  0.08129130  0.19761894  0.40314219     0.83700
C464        C  0.98448614  0.18798419  0.51208687     0.90000
O465        O  0.76429918  0.47615402  0.48191714    -0.73800
O466        O  0.78955254  0.40666979  0.39610393    -0.74800
O467        O  0.77200870  0.39683017  0.47164932    -0.63400
O468        O  0.78185992  0.48451958  0.40269523    -0.71800
O469        O  0.84010070  0.49048122  0.42021919    -0.71300
O470        O  0.83146386  0.40299794  0.48500740    -0.62600
O471        O  0.84779297  0.41395936  0.41111794    -0.75100
O472        O  0.82386615  0.47925445  0.49618271    -0.73900
Cu473      Cu  0.77452144  0.44125470  0.43781691     1.04600
Cu474      Cu  0.83751892  0.44713045  0.45369201     1.04300
C475        C  0.79051736  0.48760919  0.50317243     0.92400
C476        C  0.82342393  0.39872796  0.39059118     0.91600
C477        C  0.80123695  0.38486548  0.48721934     0.83700
C478        C  0.81373041  0.49947782  0.39874190     0.90000
C479        C  0.19684819  0.23986216  0.61222503     0.85700
C480        C  0.21816517  0.27187017  0.59534945    -0.54600
C481        C  0.23951068  0.29167405  0.61906934     0.08600
C482        C  0.23683830  0.27864793  0.65970332     0.19500
C483        C  0.22538356  0.21725978  0.63305755    -0.55300
C484        C  0.24593835  0.23684144  0.65841568     0.08700
C485        C  0.17423291  0.25987022  0.64282524    -0.54800
C486        C  0.19473568  0.28056634  0.66799245     0.09300
H487        H  0.21356807  0.28168594  0.56754079     0.13800
H488        H  0.25466618  0.29399455  0.67956037    -0.00500
H489        H  0.22732610  0.18745395  0.62989570     0.14100
H490        H  0.14426159  0.26006910  0.64263545     0.13900
C491        C  0.26885640  0.60546982  0.30777269     0.85700
C492        C  0.24255335  0.58996784  0.27739136    -0.54600
C493        C  0.22212819  0.61583544  0.25903825     0.08600
C494        C  0.22910240  0.65528591  0.27413206     0.19500
C495        C  0.29160032  0.63514208  0.28862314    -0.55300
C496        C  0.27116871  0.66085427  0.27036416     0.08700
C497        C  0.24233790  0.62643236  0.33314196    -0.52400
C498        C  0.22147601  0.65217408  0.31615861     0.09300
H499        H  0.23728836  0.56074200  0.27314052     0.13800
H500        H  0.21342754  0.67718507  0.26014113    -0.00500
H501        H  0.32145710  0.63372208  0.28652601     0.14100
H502        H  0.23773440  0.61906705  0.36184481     0.13900
C503        C  0.20651483  0.58827931  0.68872363     0.85700
C504        C  0.22990849  0.56575419  0.66146794    -0.54600
C505        C  0.25209452  0.58629477  0.63924416     0.08600
C506        C  0.24922483  0.62850541  0.64652153     0.19500
C507        C  0.23356178  0.61267892  0.71013207    -0.55300
C508        C  0.25541323  0.63438844  0.68859573     0.08700
C509        C  0.18590655  0.61469969  0.66250467    -0.54800
C510        C  0.20784110  0.63648267  0.64036307     0.09300
H511        H  0.22553782  0.53643063  0.65632662     0.13800
H512        H  0.26863023  0.64541607  0.63028067    -0.00500
H513        H  0.23304725  0.61511927  0.74012674     0.14100
H514        H  0.15608915  0.61396025  0.65959207     0.13900
C515        C  0.18952070  0.24943561  0.30136194     0.85700
C516        C  0.17680403  0.28509311  0.28294556    -0.54600
C517        C  0.20427712  0.30525279  0.26751128     0.08600
C518        C  0.24298329  0.28903312  0.27355346     0.19500
C519        C  0.21236439  0.22900052  0.27195924    -0.55300
C520        C  0.24050896  0.24939423  0.25721414     0.08700
C521        C  0.21745211  0.26449269  0.32987461    -0.54800
C522        C  0.24710838  0.28413883  0.31633504     0.09300
H523        H  0.14893212  0.29555579  0.28360497     0.13800
H524        H  0.26332413  0.30628512  0.25995572    -0.00500
H525        H  0.20574425  0.20098937  0.26315871     0.14100
H526        H  0.21099164  0.26260513  0.35891963     0.13900
O527        O  0.32599873  0.48966446  0.50219741    -0.73800
O528        O  0.33254566  0.40055665  0.43335054    -0.74800
O529        O  0.33381948  0.47999407  0.42409216    -0.63400
O530        O  0.32411879  0.41197469  0.51224763    -0.71800
O531        O  0.26385961  0.41045684  0.50209678    -0.71300
O532        O  0.27277151  0.47985312  0.41834649    -0.62600
O533        O  0.27172933  0.40208022  0.42566108    -0.75100
O534        O  0.26545172  0.48670843  0.49595136    -0.73900
Cu535      Cu  0.33148525  0.44543960  0.46795614     1.04600
Cu536      Cu  0.26657277  0.44478082  0.46010899     1.04300
C537        C  0.29399246  0.50151656  0.51083667     0.92400
C538        C  0.30284851  0.38719128  0.41912761     0.91600
C539        C  0.30445679  0.49155022  0.40837147     0.83700
C540        C  0.29167195  0.40139802  0.52152745     0.90000
C541        C  0.31041049  0.23595648  0.17745559     0.85700
C542        C  0.28608204  0.25706817  0.20516608    -0.54600
C543        C  0.26559661  0.23472435  0.22770502     0.08600
C544        C  0.27137060  0.19300583  0.21967960     0.19500
C545        C  0.33333291  0.21021643  0.20162589    -0.55300
C546        C  0.31342281  0.18692519  0.22349632     0.08700
C547        C  0.28366965  0.21047929  0.15620444    -0.54800
C548        C  0.26277080  0.18777976  0.17790186     0.09300
H549        H  0.28500193  0.28682610  0.20674688     0.13800
H550        H  0.25514050  0.17507979  0.23783404    -0.00500
H551        H  0.36313505  0.21148862  0.20110893     0.14100
H552        H  0.28206119  0.21109683  0.12632402     0.13900
C553        C  0.77296650  0.24196854  0.17222533     0.85700
C554        C  0.80790994  0.26077843  0.18808617    -0.54600
C555        C  0.83032520  0.23753796  0.20728579     0.08600
C556        C  0.81550303  0.19752272  0.20869085     0.19500
C557        C  0.78731026  0.20942248  0.14897519    -0.55300
C558        C  0.80968916  0.18598001  0.16731613     0.08700
C559        C  0.75440407  0.22451849  0.20590689    -0.54800
C560        C  0.77616527  0.20068817  0.22495690     0.09300
H561        H  0.81426917  0.28988709  0.18468792     0.13800
H562        H  0.83372984  0.17955008  0.22509192    -0.00500
H563        H  0.78014972  0.20565357  0.12011444     0.14100
H564        H  0.72529761  0.22703226  0.21200445     0.13900
C565        C  0.32712884  0.68759250  0.18548887     0.85700
C566        C  0.34764293  0.71727389  0.20825698    -0.54600
C567        C  0.32640072  0.73661309  0.23293324     0.08600
C568        C  0.28531499  0.72363042  0.23276983     0.19500
C569        C  0.30944231  0.66283636  0.21412869    -0.55300
C570        C  0.28801906  0.68133418  0.23940040     0.08700
C571        C  0.29485893  0.70760666  0.16778425    -0.54800
C572        C  0.27251408  0.72655038  0.19159240     0.09300
H573        H  0.37693251  0.72286257  0.20464249     0.13800
H574        H  0.26748797  0.73860032  0.25285639    -0.00500
H575        H  0.31332651  0.63321907  0.21486142     0.14100
H576        H  0.28948936  0.70593415  0.13822358     0.13900
C577        C  0.27403264  0.16663960  0.73209988     0.85700
C578        C  0.30264490  0.15116163  0.70468012    -0.54600
C579        C  0.32113469  0.17726095  0.68454982     0.08600
C580        C  0.30893391  0.21735136  0.69376957     0.19500
C581        C  0.29567711  0.19460009  0.75578564    -0.55300
C582        C  0.31420355  0.22105835  0.73637253     0.08700
C583        C  0.24876570  0.19036634  0.70787983    -0.54800
C584        C  0.26657953  0.21670798  0.68767440     0.09300
H585        H  0.30876329  0.12191765  0.70235695     0.13800
H586        H  0.32397449  0.23858620  0.67769370    -0.00500
H587        H  0.29734190  0.19272442  0.78572889     0.14100
H588        H  0.21937450  0.18614084  0.70462984     0.13900
C589        C  0.80918867  0.17031374  0.71903740     0.85700
C590        C  0.78644254  0.19733971  0.74250944    -0.54600
C591        C  0.76515124  0.22090621  0.72273042     0.08600
C592        C  0.76775053  0.21484752  0.68055321     0.19500
C593        C  0.78133519  0.15063847  0.69374650    -0.55300
C594        C  0.75874221  0.17329923  0.67434432     0.08700
C595        C  0.83124509  0.19507761  0.69296185    -0.54800
C596        C  0.80953908  0.21850806  0.67293370     0.09300
H597        H  0.78609764  0.19689208  0.77259169     0.13800
H598        H  0.75003437  0.23374167  0.66448157    -0.00500
H599        H  0.77784090  0.12078405  0.69329172     0.14100
H600        H  0.86111657  0.19578790  0.69136671     0.13900
C601        C  0.77675512  0.73170267  0.23524239     0.85700
C602        C  0.80366316  0.70977912  0.25907355    -0.54600
C603        C  0.82500570  0.68528922  0.23990448     0.08600
C604        C  0.81681840  0.68443738  0.19777225     0.19500
C605        C  0.80124758  0.74937976  0.20564548    -0.55300
C606        C  0.82192177  0.72506236  0.18525380     0.08700
C607        C  0.75418579  0.70249943  0.21400584    -0.54800
C608        C  0.77458328  0.67761037  0.19371376     0.09300
H609        H  0.80753495  0.71390127  0.28849840     0.13800
H610        H  0.83430934  0.66415983  0.18296820    -0.00500
H611        H  0.80038412  0.77874688  0.20064140     0.14100
H612        H  0.72440335  0.70399083  0.21350070     0.13900
C613        C  0.27402246  0.72427617  0.74276489     0.85700
C614        C  0.25285641  0.69064661  0.72796902    -0.54600
C615        C  0.27272285  0.66808090  0.70499288     0.08600
C616        C  0.31253891  0.68183040  0.69816068     0.19500
C617        C  0.30906594  0.70874385  0.76059084    -0.55300
C618        C  0.32941006  0.68657624  0.73742950     0.08700
C619        C  0.28830676  0.74373151  0.70825344    -0.54800
C620        C  0.30748332  0.72172904  0.68448244     0.09300
H621        H  0.22400478  0.68557348  0.73439224     0.13800
H622        H  0.32876222  0.66385624  0.67916760    -0.00500
H623        H  0.31752465  0.71469529  0.78885647     0.14100
H624        H  0.28374207  0.77277201  0.70277455     0.13900
C625        C  0.19049733  0.10935352  0.16258360     0.85700
C626        C  0.21965228  0.08983021  0.13874394    -0.54600
C627        C  0.23770676  0.11158640  0.11456139     0.08600
C628        C  0.22939254  0.15297589  0.12009517     0.19500
C629        C  0.21436993  0.13746994  0.18417023    -0.55300
C630        C  0.23525288  0.16044793  0.16233906     0.08700
C631        C  0.16768949  0.13267938  0.13563731    -0.54800
C632        C  0.18755188  0.15621797  0.11368973     0.09300
H633        H  0.22728650  0.06121894  0.14084764     0.13800
H634        H  0.24613733  0.17071971  0.10221736    -0.00500
H635        H  0.21530840  0.13762240  0.21408145     0.14100
H636        H  0.13789116  0.12982644  0.13346330     0.13900
C637        C  0.25144324  0.08327769  0.79745202     0.85700
C638        C  0.22947055  0.06557542  0.76519112    -0.54600
C639        C  0.20800546  0.08890061  0.74491713     0.08600
C640        C  0.21302621  0.12948881  0.75776408     0.19500
C641        C  0.27522392  0.11209572  0.77665852    -0.55300
C642        C  0.25531609  0.13662415  0.75565208     0.08700
C643        C  0.22346151  0.10587192  0.81946624    -0.54800
C644        C  0.20325209  0.12969363  0.79933534     0.09300
H645        H  0.23089299  0.03642220  0.75882501     0.13800
H646        H  0.19669009  0.14926928  0.74234008    -0.00500
H647        H  0.30516882  0.11231883  0.77716681     0.14100
H648        H  0.21848889  0.10178691  0.84880057     0.13900
C649        C  0.86360268  0.09711048  0.14680744     0.85700
C650        C  0.89006349  0.11868103  0.12175263    -0.54600
C651        C  0.87426246  0.14469127  0.10034883     0.08600
C652        C  0.83201210  0.14736184  0.10597425     0.19500
C653        C  0.84235504  0.12611587  0.16889531    -0.55300
C654        C  0.82692445  0.15324940  0.14861686     0.08700
C655        C  0.83529793  0.08154551  0.11875839    -0.54800
C656        C  0.81782998  0.10749941  0.09774559     0.09300
H657        H  0.91919802  0.11202702  0.11928626     0.13800
H658        H  0.81921547  0.16864564  0.08854503    -0.00500
H659        H  0.84108240  0.12566532  0.19868553     0.14100
H660        H  0.83231715  0.05265273  0.11173840     0.13900
C661        C  0.19529368  0.74281380  0.12337244     0.85700
C662        C  0.22363207  0.76992174  0.10575366    -0.54600
C663        C  0.24358167  0.79181940  0.13006348     0.08600
C664        C  0.23203204  0.78538594  0.17054925     0.19500
C665        C  0.21732043  0.72168672  0.15212142    -0.55300
C666        C  0.23769116  0.74311801  0.17645264     0.08700
C667        C  0.17118608  0.76886681  0.14609647    -0.54800
C668        C  0.18940919  0.79190211  0.16986341     0.09300
H669        H  0.22458487  0.77568410  0.07651729     0.13800
H670        H  0.24709797  0.80265839  0.19123016    -0.00500
H671        H  0.22029131  0.69187349  0.15022660     0.14100
H672        H  0.14203753  0.77256015  0.14002021     0.13900
C673        C  0.87650692  0.72935288  0.09314513     0.85700
C674        C  0.90554181  0.75597747  0.10957143    -0.54600
C675        C  0.89222885  0.78127951  0.13412200     0.08600
C676        C  0.85049350  0.77756012  0.14096602     0.19500
C677        C  0.85679378  0.71203175  0.12638010    -0.55300
C678        C  0.84395376  0.73675722  0.15220497     0.08700
C679        C  0.84570131  0.75409202  0.07839120    -0.54800
C680        C  0.83266589  0.78091239  0.10209531     0.09300
H681        H  0.93424899  0.75603590  0.10086589     0.13800
H682        H  0.84062889  0.79725879  0.16186085    -0.00500
H683        H  0.84872856  0.68342626  0.12681767     0.14100
H684        H  0.83552063  0.75058530  0.05060239     0.13900
O685        O  0.00255965  0.92185878  0.15927258    -0.73800
O686        O  0.07063646  0.00553603  0.18421132    -0.74800
O687        O  0.07809544  0.92965716  0.17076222    -0.63400
O688        O  0.99308328  0.99765748  0.17263221    -0.71800
O689        O  0.98608317  0.98889554  0.23294445    -0.71300
O690        O  0.07212376  0.91708926  0.22971668    -0.62600
O691        O  0.06630774  0.99484071  0.24434535    -0.75100
O692        O  0.99294497  0.91164353  0.21845391    -0.73900
Cu693      Cu  0.03626862  0.96423526  0.16996911     1.04600
Cu694      Cu  0.02898520  0.95289083  0.23370138     1.04300
C695        C  0.98641069  0.90351404  0.18442485     0.92400
C696        C  0.08121228  0.01209271  0.21742179     0.91600
C697        C  0.08918210  0.91238648  0.19904352     0.83700
C698        C  0.97537989  0.00322624  0.20260591     0.90000
C699        C  0.20721075  0.80000068  0.77848777     0.85700
C700        C  0.24041296  0.81659367  0.80072717    -0.54600
C701        C  0.26219122  0.79110692  0.81834524     0.08600
C702        C  0.25026395  0.75114853  0.80957959     0.19500
C703        C  0.22643315  0.77406719  0.75102894    -0.55300
C704        C  0.24980990  0.74905099  0.76671081     0.08700
C705        C  0.18772377  0.77485161  0.80543116    -0.54800
C706        C  0.20945613  0.74954997  0.82173545     0.09300
H707        H  0.24682927  0.84575362  0.80243101     0.13800
H708        H  0.26753384  0.72986693  0.82248728    -0.00500
H709        H  0.22252075  0.77616953  0.72133997     0.14100
H710        H  0.15875804  0.77806405  0.81265270     0.13900
O711        O  0.26202757  0.98253014  0.00211173    -0.73800
O712        O  0.27567499  0.89241077  0.94053131    -0.74800
O713        O  0.26824422  0.90695479  0.01699270    -0.63400
O714        O  0.26921329  0.96858381  0.92617451    -0.71800
O715        O  0.32985144  0.97661728  0.92923992    -0.71300
O716        O  0.32884155  0.91422370  0.02280054    -0.62600
O717        O  0.33653601  0.89916175  0.94431953    -0.75100
O718        O  0.32194368  0.99283339  0.00601211    -0.73900
Cu719      Cu  0.26694000  0.93734337  0.97141316     1.04600
Cu720      Cu  0.33164013  0.94580041  0.97601839     1.04300
C721        C  0.28883641  0.00331826  0.01216255     0.92400
C722        C  0.30806146  0.88180540  0.93193655     0.91600
C723        C  0.29819236  0.90057914  0.03424573     0.83700
C724        C  0.29895217  0.98258472  0.91327485     0.90000
C725        C  0.83141790  0.09460093  0.78961174     0.85700
C726        C  0.85428290  0.12228841  0.81332822    -0.54600
C727        C  0.87514964  0.14744538  0.79370425     0.08600
C728        C  0.87111910  0.14149792  0.75136195     0.19500
C729        C  0.80890718  0.11855545  0.76403786    -0.55300
C730        C  0.82909083  0.14315662  0.74373529     0.08700
C731        C  0.86112786  0.07691060  0.76534390    -0.54800
C732        C  0.88186096  0.10063314  0.74534421     0.09300
H733        H  0.85607211  0.12008556  0.84320324     0.13800
H734        H  0.88680034  0.16103987  0.73439213    -0.00500
H735        H  0.77898432  0.11669215  0.76262080     0.14100
H736        H  0.86970875  0.04845327  0.76836505     0.13900
O737        O  0.00024025  0.16205623  0.98568214    -0.73800
O738        O  0.07807734  0.15785310  0.91279865    -0.74800
O739        O  0.07689067  0.16411650  0.98920670    -0.63400
O740        O  0.00053865  0.15937951  0.90794928    -0.71800
O741        O  0.00048964  0.22058752  0.90498511    -0.71300
O742        O  0.07620554  0.22528909  0.98611708    -0.62600
O743        O  0.07905771  0.21811919  0.90483901    -0.75100
O744        O  0.99488201  0.22262894  0.98324830    -0.73900
Cu745      Cu  0.03903640  0.15912458  0.94912095     1.04600
Cu746      Cu  0.03802875  0.22420597  0.94503696     1.04300
C747        C  0.98300406  0.19113967  0.99456856     0.92400
C748        C  0.08975865  0.18552562  0.89519469     0.91600
C749        C  0.08865904  0.19571366  0.00022223     0.83700
C750        C  0.98834806  0.18928738  0.89397707     0.90000
C751        C  0.90134307  0.71746152  0.79334653     0.85700
C752        C  0.87732042  0.73361012  0.82472384    -0.54600
C753        C  0.85339509  0.76065605  0.81438324     0.08600
C754        C  0.85332933  0.76682723  0.77196519     0.19500
C755        C  0.87311960  0.70246707  0.76496956    -0.55300
C756        C  0.84736053  0.72779876  0.75405048     0.08700
C757        C  0.91816194  0.75222043  0.77547769    -0.54800
C758        C  0.89354854  0.77737810  0.76294626     0.09300
H759        H  0.88095983  0.72610036  0.85347872     0.13800
H760        H  0.83336447  0.78790711  0.76301257    -0.00500
H761        H  0.87383202  0.67431252  0.75435601     0.14100
H762        H  0.94739274  0.75825329  0.77426961     0.13900
O763        O  0.07352109  0.71448482  0.00302467    -0.73800
O764        O  0.00904695  0.70440844  0.91235774    -0.74800
O765        O  0.99706378  0.70348615  0.98888892    -0.63400
O766        O  0.08339682  0.71668613  0.92651931    -0.71800
O767        O  0.09615173  0.65702782  0.92764915    -0.71300
O768        O  0.00165043  0.64243926  0.98732324    -0.62600
O769        O  0.01904824  0.64401414  0.91028468    -0.75100
O770        O  0.08025510  0.65365391  0.00426263    -0.73900
Cu771      Cu  0.04034331  0.71158811  0.95790163     1.04600
Cu772      Cu  0.04950074  0.64688566  0.95747652     1.04300
C773        C  0.08832705  0.68587019  0.01695965     0.92400
C774        C  0.00437797  0.67284967  0.89671633     0.91600
C775        C  0.98397495  0.67175460  0.99630149     0.83700
C776        C  0.10465198  0.69008460  0.91849490     0.90000
O777        O  0.81518390  0.99016281  0.98415010    -0.73800
O778        O  0.82772810  0.90295443  0.91734958    -0.74800
O779        O  0.81811431  0.97939273  0.90725684    -0.63400
O780        O  0.82347830  0.91271291  0.99477632    -0.71800
O781        O  0.76256304  0.90584313  0.99286838    -0.71300
O782        O  0.75749180  0.97024785  0.90348065    -0.62600
O783        O  0.76779422  0.89152937  0.91564473    -0.75100
O784        O  0.75430376  0.98418134  0.98120775    -0.73900
Cu785      Cu  0.82305710  0.94658896  0.95095096     1.04600
Cu786      Cu  0.75825532  0.93773163  0.94818990     1.04300
C787        C  0.78312334  0.00190161  0.99246285     0.92400
C788        C  0.80089345  0.88214109  0.90730720     0.91600
C789        C  0.78703402  0.98567393  0.89198686     0.83700
C790        C  0.79379488  0.89798152  0.00700186     0.90000
O791        O  0.00426225  0.98617469  0.67643631    -0.73800
O792        O  0.07895552  0.90084626  0.68654973    -0.74800
O793        O  0.99762647  0.90581497  0.68568809    -0.63400
O794        O  0.08179942  0.97815132  0.67359281    -0.71800
O795        O  0.08041587  0.98835866  0.73430131    -0.71300
O796        O  0.00030460  0.91151552  0.74668292    -0.62600
O797        O  0.07781950  0.91193365  0.74698910    -0.75100
O798        O  0.00360437  0.98732727  0.73739700    -0.73900
Cu799      Cu  0.04024351  0.94195418  0.67811926     1.04600
Cu800      Cu  0.04046146  0.94986001  0.74311226     1.04300
C801        C  0.99449150  0.00169889  0.70704336     0.92400
C802        C  0.09194118  0.89558957  0.71923535     0.91600
C803        C  0.98564795  0.89700577  0.71770960     0.83700
C804        C  0.09364030  0.99533465  0.70223278     0.90000
C805        C  0.77457747  0.73035278  0.67540948     0.85700
C806        C  0.79659588  0.70089708  0.65376310    -0.54600
C807        C  0.81209165  0.67419935  0.67528526     0.08600
C808        C  0.80321861  0.67906044  0.71698160     0.19500
C809        C  0.74596910  0.70763713  0.69707083    -0.55300
C810        C  0.76032105  0.68100444  0.71883348     0.08700
C811        C  0.80176694  0.74518049  0.70481948    -0.54800
C812        C  0.81736940  0.71873731  0.72652056     0.09300
H813        H  0.79864641  0.70045531  0.62378118     0.13800
H814        H  0.81478935  0.65691253  0.73436140    -0.00500
H815        H  0.71641253  0.71051831  0.69495205     0.14100
H816        H  0.80918049  0.77421248  0.70675965     0.13900
C817        C  0.78727969  0.83026235  0.85958735    -0.02700
C818        C  0.81009201  0.84670131  0.88725243     0.07000
C819        C  0.84450267  0.83003425  0.89477915    -0.02800
C820        C  0.85921144  0.80337876  0.87044966    -0.02800
C821        C  0.83693343  0.78731621  0.84207635     0.07100
C822        C  0.79999685  0.79934714  0.83868948    -0.03000
Br823      Br  0.76656959  0.77286575  0.80608842    -0.01500
Br824      Br  0.73956146  0.85054714  0.84848973    -0.01600
Br825      Br  0.91178215  0.79434340  0.87388033    -0.01600
Br826      Br  0.87151545  0.84175865  0.93985161    -0.01600
C827        C  0.96866090  0.69414395  0.80135342    -0.02700
C828        C  0.93031166  0.68967415  0.80784701     0.07000
C829        C  0.92040496  0.66412445  0.83534682    -0.02800
C830        C  0.94577602  0.65508684  0.86342671    -0.02800
C831        C  0.98151495  0.67056998  0.86278466     0.07100
C832        C  0.99398917  0.68687773  0.82993941    -0.03000
Br833      Br  0.04570913  0.69808440  0.82392482    -0.01500
Br834      Br  0.98691627  0.70092685  0.75176109    -0.01600
Br835      Br  0.93136367  0.62292536  0.90300596    -0.01600
Br836      Br  0.87316100  0.64059174  0.83319832    -0.01600
C837        C  0.90229959  0.84706408  0.75796790    -0.02700
C838        C  0.90720139  0.81110060  0.74322103     0.07000
C839        C  0.93154473  0.80643486  0.71297393    -0.02800
C840        C  0.95530924  0.83542660  0.70224370    -0.02800
C841        C  0.95510134  0.86942789  0.72193819     0.07100
C842        C  0.92657697  0.87593083  0.74785865    -0.03000
Br843      Br  0.92017383  0.92479164  0.76906723    -0.01500
Br844      Br  0.86265269  0.85776209  0.79152719    -0.01600
Br845      Br  0.98924907  0.82716767  0.66194586    -0.01600
Br846      Br  0.93227323  0.75984999  0.68623732    -0.01600
C847        C  0.89432371  0.18621416  0.84876267    -0.02700
C848        C  0.90326171  0.17195847  0.81325508     0.07000
C849        C  0.94079860  0.17517090  0.80159837    -0.02800
C850        C  0.96861436  0.18333994  0.82791923    -0.02800
C851        C  0.95935219  0.18786076  0.86537483     0.07100
C852        C  0.92221136  0.19274335  0.87519364    -0.03000
Br853      Br  0.90960273  0.20836529  0.92477566    -0.01500
Br854      Br  0.84405560  0.19868949  0.86056676    -0.01600
Br855      Br  0.01943835  0.18966318  0.81294737    -0.01600
Br856      Br  0.95665147  0.16855787  0.75116624    -0.01600
C857        C  0.77587148  0.04868422  0.86785978    -0.02700
C858        C  0.78599467  0.01179621  0.86133290     0.07000
C859        C  0.79931316  0.00125254  0.82644964    -0.02800
C860        C  0.80659360  0.02834525  0.80003555    -0.02800
C861        C  0.80805077  0.06622441  0.81110614     0.07100
C862        C  0.78808380  0.07626204  0.84345591    -0.03000
Br863      Br  0.77586477  0.12678073  0.85428286    -0.01500
Br864      Br  0.74495355  0.06079047  0.90969945    -0.01600
Br865      Br  0.80710599  0.01317425  0.74848872    -0.01600
Br866      Br  0.80749567  0.94979726  0.81499101    -0.01600
C867        C  0.97482414  0.05557224  0.74516625    -0.02700
C868        C  0.97324003  0.03673107  0.71046011     0.07000
C869        C  0.94800810  0.04928719  0.68362111    -0.02800
C870        C  0.92123182  0.07581080  0.69393778    -0.02800
C871        C  0.91767016  0.08689864  0.73128625     0.07100
C872        C  0.94494299  0.07654432  0.75694761    -0.03000
Br873      Br  0.93955021  0.08468750  0.80970921    -0.01500
Br874      Br  0.01704403  0.05250342  0.77826213    -0.01600
Br875      Br  0.88711595  0.09448813  0.65820057    -0.01600
Br876      Br  0.94865086  0.02991633  0.63376586    -0.01600
C877        C  0.28699374  0.79109908  0.88414306    -0.02700
C878        C  0.29030796  0.80270392  0.84703660     0.07000
C879        C  0.31339559  0.83331047  0.84015364    -0.02800
C880        C  0.32445276  0.85708960  0.86936810    -0.02800
C881        C  0.31136010  0.85063004  0.90539492     0.07100
C882        C  0.29460047  0.81639608  0.91312842    -0.03000
Br883      Br  0.27932255  0.80517039  0.96284838    -0.01500
Br884      Br  0.27438073  0.74108120  0.89663307    -0.01600
Br885      Br  0.35388094  0.90035790  0.85930696    -0.01600
Br886      Br  0.32982029  0.84201663  0.79064784    -0.01600
C887        C  0.12484316  0.83444092  0.71893164    -0.02700
C888        C  0.12461709  0.87238242  0.72728680     0.07000
C889        C  0.15082064  0.88667758  0.75285694    -0.02800
C890        C  0.17427214  0.86310890  0.77228460    -0.02800
C891        C  0.17852049  0.82591388  0.76063674     0.07100
C892        C  0.15108743  0.81129966  0.73585457    -0.03000
Br893      Br  0.14276010  0.75888576  0.73174019    -0.01500
Br894      Br  0.08684358  0.81357319  0.68736922    -0.01600
Br895      Br  0.18585158  0.87878235  0.82232968    -0.01600
Br896      Br  0.15300055  0.93894885  0.76429036    -0.01600
C897        C  0.18244014  0.69219884  0.84822942    -0.02700
C898        C  0.19403453  0.72907463  0.85319481     0.07000
C899        C  0.18169927  0.74962786  0.88416020    -0.02800
C900        C  0.15620756  0.73417667  0.90844286    -0.02800
C901        C  0.13947399  0.69964601  0.89961504     0.07100
C902        C  0.15371244  0.67794859  0.87022839    -0.03000
Br903      Br  0.13109622  0.63133664  0.85651371    -0.01500
Br904      Br  0.20394103  0.66253021  0.80952009    -0.01600
Br905      Br  0.14327954  0.76226051  0.95272936    -0.01600
Br906      Br  0.19579488  0.80095322  0.89123758    -0.01600
C907        C  0.92340716  0.84244365  0.12437879    -0.02700
C908        C  0.91521305  0.81285883  0.14795655     0.07000
C909        C  0.92925073  0.81335605  0.18426544    -0.02800
C910        C  0.95307547  0.84226314  0.19635031    -0.02800
C911        C  0.96026509  0.87292875  0.17316866     0.07100
C912        C  0.94340760  0.87333701  0.13759203    -0.03000
Br913      Br  0.94450359  0.91676211  0.10674634    -0.01500
Br914      Br  0.90759273  0.84100164  0.07337595    -0.01600
Br915      Br  0.97725355  0.83748023  0.24366720    -0.01600
Br916      Br  0.91681547  0.77334036  0.21682717    -0.01600
C917        C  0.78765917  0.80602005  0.05519172    -0.02700
C918        C  0.81002724  0.81261817  0.08704954     0.07000
C919        C  0.81760242  0.85026424  0.09685840    -0.02800
C920        C  0.81153744  0.87845003  0.07088455    -0.02800
C921        C  0.79577647  0.86991177  0.03625286     0.07100
C922        C  0.78221252  0.83400719  0.02919965    -0.03000
Br923      Br  0.75980769  0.82172583  0.98195056    -0.01500
Br924      Br  0.76350939  0.75884561  0.04645261    -0.01600
Br925      Br  0.82518580  0.92910708  0.08226998    -0.01600
Br926      Br  0.83400187  0.86585433  0.14539884    -0.01600
C927        C  0.90110558  0.71769557  0.02673864    -0.02700
C928        C  0.89509034  0.70408113  0.06345275     0.07000
C929        C  0.91466575  0.67106235  0.07311274    -0.02800
C930        C  0.94187473  0.65623874  0.04906554    -0.02800
C931        C  0.94729036  0.67147153  0.01413784     0.07100
C932        C  0.92226841  0.69759712  0.00133646    -0.03000
Br933      Br  0.92265726  0.71078544  0.94947228    -0.01500
Br934      Br  0.89160936  0.76774101  0.01081555    -0.01600
Br935      Br  0.97381954  0.61682770  0.06453585    -0.01600
Br936      Br  0.90934701  0.64642568  0.11972923    -0.01600
C937        C  0.31003425  0.84005998  0.06489981    -0.02700
C938        C  0.29616178  0.87619822  0.06693370     0.07000
C939        C  0.27448223  0.88645779  0.09765222    -0.02800
C940        C  0.26347898  0.85973360  0.12361822    -0.02800
C941        C  0.26927559  0.82168511  0.11591233     0.07100
C942        C  0.29552927  0.81262134  0.08832019    -0.03000
Br943      Br  0.31183935  0.76255114  0.08271340    -0.01500
Br944      Br  0.34770504  0.82800463  0.02920628    -0.01600
Br945      Br  0.24375907  0.87685809  0.16992539    -0.01600
Br946      Br  0.25924361  0.93721120  0.10353341    -0.01600
C947        C  0.13416745  0.86373989  0.22383885    -0.02700
C948        C  0.12115944  0.88631256  0.19465565     0.07000
C949        C  0.13805873  0.88230728  0.15935966    -0.02800
C950        C  0.15936259  0.85119229  0.15116361    -0.02800
C951        C  0.17034942  0.82710245  0.17965986     0.07100
C952        C  0.15931781  0.83477380  0.21625832    -0.03000
Br953      Br  0.17715382  0.80390145  0.25544035    -0.01500
Br954      Br  0.11966283  0.87249985  0.27455947    -0.01600
Br955      Br  0.17190845  0.84214216  0.09970417    -0.01600
Br956      Br  0.13595800  0.92020615  0.12178931    -0.01600
C957        C  0.18130105  0.70940137  0.05938485    -0.02700
C958        C  0.17150955  0.71791649  0.09680122     0.07000
C959        C  0.13676265  0.70383271  0.10918027    -0.02800
C960        C  0.10902811  0.69346162  0.08343233    -0.02800
C961        C  0.11750197  0.69085795  0.04565441     0.07100
C962        C  0.15460993  0.69432427  0.03477993    -0.03000
Br963      Br  0.16926699  0.67500695  0.98705187    -0.01500
Br964      Br  0.23109358  0.71338459  0.04084674    -0.01600
Br965      Br  0.05965405  0.68205336  0.09974267    -0.01600
Br966      Br  0.12719733  0.69630246  0.16110867    -0.01600
C967        C  0.90830678  0.13664060  0.04079870    -0.02700
C968        C  0.89593337  0.16054775  0.06920442     0.07000
C969        C  0.90800123  0.19773595  0.06955960    -0.02800
C970        C  0.93577567  0.20962584  0.04456122    -0.02800
C971        C  0.94865029  0.18507411  0.01674844     0.07100
C972        C  0.93088847  0.15014753  0.01268208    -0.03000
Br973      Br  0.93580608  0.12023743  0.96794885    -0.01500
Br974      Br  0.89639590  0.08436359  0.04057054    -0.01600
Br975      Br  0.95680793  0.25839514  0.04985273    -0.01600
Br976      Br  0.88804623  0.23139802  0.10565566    -0.01600
C977        C  0.91675918  0.08710173  0.19129528    -0.02700
C978        C  0.88591817  0.07140718  0.17209828     0.07000
C979        C  0.87978468  0.03270789  0.17570367    -0.02800
C980        C  0.90825588  0.01025043  0.18951389    -0.02800
C981        C  0.94199660  0.02611866  0.20084267     0.07100
C982        C  0.94513907  0.06448397  0.20413803    -0.03000
Br983      Br  0.98967806  0.08600985  0.22374490    -0.01500
Br984      Br  0.92219982  0.13993914  0.19808258    -0.01600
Br985      Br  0.90156165  0.95749641  0.19303244    -0.01600
Br986      Br  0.83223735  0.00970443  0.16806071    -0.01600
C987        C  0.80134732  0.06809769  0.00489316    -0.02700
C988        C  0.78057287  0.03651098  0.01506189     0.07000
C989        C  0.76061101  0.03764467  0.04859647    -0.02800
C990        C  0.76682512  0.06698674  0.07406221    -0.02800
C991        C  0.79316012  0.09472993  0.06652319     0.07100
C992        C  0.80498917  0.09830697  0.02967414    -0.03000
Br993      Br  0.82329739  0.14483843  0.01202070    -0.01500
Br994      Br  0.82755876  0.06953293  0.95840404    -0.01600
Br995      Br  0.74085882  0.06923400  0.12036071    -0.01600
Br996      Br  0.72879906  0.99717818  0.06215274    -0.01600
C997        C  0.29680606  0.06704750  0.85101189    -0.02700
C998        C  0.27018485  0.05528926  0.82394124     0.07000
C999        C  0.25540891  0.01883573  0.82823042    -0.02800
C1000       C  0.27264490  0.99342682  0.85126090    -0.02800
C1001       C  0.29605840  0.00583526  0.87968287     0.07100
C1002       C  0.30850347  0.04283063  0.87937348    -0.03000
Br1003     Br  0.33856176  0.06128924  0.91987701    -0.01500
Br1004     Br  0.31275108  0.11784631  0.85454904    -0.01600
Br1005     Br  0.26086341  0.94146904  0.84614713    -0.01600
Br1006     Br  0.20437343  0.00619981  0.81828458    -0.01600
C1007       C  0.13928412  0.12655985  0.82454908    -0.02700
C1008       C  0.17067999  0.14798898  0.81642084     0.07000
C1009       C  0.17268526  0.18484649  0.82930320    -0.02800
C1010       C  0.14514647  0.19921547  0.85326109    -0.02800
C1011       C  0.11473212  0.17678206  0.86329974     0.07100
C1012       C  0.11058828  0.14153043  0.84574369    -0.03000
Br1013     Br  0.06565073  0.11229565  0.85018538    -0.01500
Br1014     Br  0.13618946  0.07528716  0.80918501    -0.01600
Br1015     Br  0.15067862  0.24840893  0.87350901    -0.01600
Br1016     Br  0.21497661  0.21413806  0.81640188    -0.01600
C1017       C  0.11439927  0.06087431  0.70599948    -0.02700
C1018       C  0.12270527  0.02376557  0.69873624     0.07000
C1019       C  0.15930483  0.01411013  0.69102505    -0.02800
C1020       C  0.18775433  0.03967743  0.69891867    -0.02800
C1021       C  0.17985925  0.07341158  0.71774833     0.07100
C1022       C  0.14261123  0.08579183  0.71673482    -0.03000
Br1023     Br  0.12737174  0.13475996  0.73119744    -0.01500
Br1024     Br  0.06457367  0.07742729  0.69844479    -0.01600
Br1025     Br  0.23721082  0.02836345  0.68357090    -0.01600
Br1026     Br  0.17038092  0.96597891  0.67047901    -0.01600
C1027       C  0.22945533  0.07698567  0.05475737    -0.02700
C1028       C  0.25351437  0.09364057  0.08098594     0.07000
C1029       C  0.29159666  0.08702339  0.07841905    -0.02800
C1030       C  0.30489636  0.05899694  0.05427828    -0.02800
C1031       C  0.27978622  0.03917990  0.03105070     0.07100
C1032       C  0.24326264  0.05253075  0.02799192    -0.03000
Br1033     Br  0.21183059  0.03944683  0.98618711    -0.01500
Br1034     Br  0.17674369  0.08480305  0.05615458    -0.01600
Br1035     Br  0.35700907  0.04862096  0.05393410    -0.01600
Br1036     Br  0.32466953  0.11555743  0.10931797    -0.01600
C1037       C  0.16508251  0.04434458  0.18000790    -0.02700
C1038       C  0.16541198  0.08344106  0.18564684     0.07000
C1039       C  0.13942967  0.09786444  0.21185732    -0.02800
C1040       C  0.11277330  0.07405196  0.22812272    -0.02800
C1041       C  0.11471245  0.03569030  0.22212431     0.07100
C1042       C  0.14609634  0.02200928  0.20464218    -0.03000
Br1043     Br  0.15940029  0.97115600  0.20945962    -0.01500
Br1044     Br  0.17059769  0.02034959  0.13212366    -0.01600
Br1045     Br  0.07601185  0.09295872  0.26132999    -0.01600
Br1046     Br  0.13652911  0.15001743  0.22290694    -0.01600
C1047       C  0.15390817  0.18690041  0.01906403    -0.02700
C1048       C  0.11786322  0.19723621  0.02868254     0.07000
C1049       C  0.10937962  0.20510059  0.06584935    -0.02800
C1050       C  0.13508524  0.19675998  0.09375877    -0.02800
C1051       C  0.16879577  0.17918193  0.08468802     0.07100
C1052       C  0.17983286  0.17865700  0.04685267    -0.03000
Br1053     Br  0.22919996  0.16697279  0.03093867    -0.01500
Br1054     Br  0.16698324  0.18318886  0.96726422    -0.01600
Br1055     Br  0.12449042  0.21052195  0.14435024    -0.01600
Br1056     Br  0.06184276  0.22526391  0.07850070    -0.01600
C1057       C  0.27471402  0.29447414  0.38114747    -0.02700
C1058       C  0.27554293  0.30237092  0.34249600     0.07000
C1059       C  0.30142183  0.33035195  0.33175794    -0.02800
C1060       C  0.31556284  0.35553337  0.35865004    -0.02800
C1061       C  0.30301429  0.35392771  0.39518703     0.07100
C1062       C  0.28547552  0.32169439  0.40714660    -0.03000
Br1063     Br  0.27774103  0.31450191  0.45943538    -0.01500
Br1064     Br  0.26705831  0.24502403  0.39947961    -0.01600
Br1065     Br  0.35370395  0.39091989  0.34690995    -0.01600
Br1066     Br  0.32322346  0.33286257  0.28332962    -0.01600
C1067       C  0.24104470  0.56338577  0.57449361    -0.02700
C1068       C  0.26575612  0.56965606  0.60417762     0.07000
C1069       C  0.30228103  0.55694356  0.60134825    -0.02800
C1070       C  0.31343068  0.53637840  0.56974616    -0.02800
C1071       C  0.28844332  0.53076766  0.53974288     0.07100
C1072       C  0.25378465  0.54833547  0.54114632    -0.03000
Br1073     Br  0.22336631  0.55328717  0.49735074    -0.01500
Br1074     Br  0.18841359  0.56957329  0.57994096    -0.01600
Br1075     Br  0.36211760  0.51502634  0.56953439    -0.01600
Br1076     Br  0.33533716  0.56396080  0.64287645    -0.01600
C1077       C  0.30551929  0.58593246  0.36509622    -0.02700
C1078       C  0.29193184  0.57710405  0.32913382     0.07000
C1079       C  0.29543856  0.54010556  0.31665203    -0.02800
C1080       C  0.29937705  0.51170944  0.34245748    -0.02800
C1081       C  0.30628460  0.52039039  0.37990424     0.07100
C1082       C  0.31183498  0.55756425  0.39063799    -0.03000
Br1083     Br  0.32418529  0.56980560  0.44133018    -0.01500
Br1084     Br  0.31551371  0.63660788  0.37973715    -0.01600
Br1085     Br  0.29286702  0.46125917  0.32649574    -0.01600
Br1086     Br  0.30375371  0.52879718  0.26498371    -0.01600
C1087       C  0.30670966  0.34807737  0.56381082    -0.02700
C1088       C  0.28460463  0.37872819  0.55479184     0.07000
C1089       C  0.25103864  0.38417854  0.57387267    -0.02800
C1090       C  0.23611595  0.35578742  0.59512858    -0.02800
C1091       C  0.25793006  0.32514044  0.60456297     0.07100
C1092       C  0.29366371  0.32195975  0.58953223    -0.03000
Br1093     Br  0.32128469  0.27779326  0.59871786    -0.01500
Br1094     Br  0.35259943  0.33910876  0.53832240    -0.01600
Br1095     Br  0.18335097  0.35560727  0.60310088    -0.01600
Br1096     Br  0.22426915  0.43011392  0.57021956    -0.01600
C1097       C  0.12125818  0.23199178  0.31322499    -0.02700
C1098       C  0.15920737  0.22533640  0.31909228     0.07000
C1099       C  0.16845910  0.19777625  0.34506927    -0.02800
C1100       C  0.14183294  0.18559118  0.37080281    -0.02800
C1101       C  0.10652339  0.20179325  0.37123900     0.07100
C1102       C  0.09572471  0.22352944  0.34106235    -0.03000
Br1103     Br  0.04599723  0.24185317  0.33713165    -0.01500
Br1104     Br  0.10261572  0.24253367  0.26439189    -0.01600
Br1105     Br  0.15442427  0.14823671  0.40614950    -0.01600
Br1106     Br  0.21699627  0.17601602  0.34528001    -0.01600
C1107       C  0.15269959  0.21227084  0.51951466    -0.02700
C1108       C  0.12069248  0.19377554  0.53127027     0.07000
C1109       C  0.11944567  0.17998133  0.56748521    -0.02800
C1110       C  0.14524120  0.19305519  0.59411049    -0.02800
C1111       C  0.17431358  0.21708530  0.58342004     0.07100
C1112       C  0.18119893  0.21981081  0.54477820    -0.03000
Br1113     Br  0.23061654  0.22488329  0.52494088    -0.01500
Br1114     Br  0.15812120  0.22697959  0.46866363    -0.01600
Br1115     Br  0.14122806  0.17662462  0.64428354    -0.01600
Br1116     Br  0.08367953  0.14260629  0.58000448    -0.01600
C1117       C  0.15792882  0.36471677  0.19670847    -0.02700
C1118       C  0.15284810  0.39739080  0.21792545     0.07000
C1119       C  0.17438515  0.40286079  0.25034701    -0.02800
C1120       C  0.19485897  0.37355251  0.26502667    -0.02800
C1121       C  0.19526960  0.33912110  0.24663034     0.07100
C1122       C  0.17899298  0.33559632  0.21125457    -0.03000
Br1123     Br  0.18317718  0.28946803  0.18430405    -0.01500
Br1124     Br  0.13407523  0.35810892  0.14931720    -0.01600
Br1125     Br  0.21914445  0.37942826  0.31223293    -0.01600
Br1126     Br  0.17540149  0.45043518  0.27529973    -0.01600
C1127       C  0.17214993  0.54860731  0.19803906    -0.02700
C1128       C  0.13613474  0.55349722  0.21214528     0.07000
C1129       C  0.12738211  0.58670386  0.23078548    -0.02800
C1130       C  0.15519523  0.61315360  0.23818690    -0.02800
C1131       C  0.19258819  0.60388383  0.23208247     0.07100
C1132       C  0.20019505  0.57411390  0.20769433    -0.03000
Br1133     Br  0.24940581  0.56847772  0.18808450    -0.01500
Br1134     Br  0.18455092  0.50487146  0.16963765    -0.01600
Br1135     Br  0.14071010  0.66156007  0.25511572    -0.01600
Br1136     Br  0.07788365  0.59511434  0.24861653    -0.01600
C1137       C  0.11836004  0.55514957  0.73622161    -0.02700
C1138       C  0.12556396  0.51730500  0.73742665     0.07000
C1139       C  0.16226121  0.50569179  0.73877071    -0.02800
C1140       C  0.19034245  0.52928114  0.72581014    -0.02800
C1141       C  0.18111713  0.56538032  0.71392109     0.07100
C1142       C  0.14690748  0.57962713  0.72658080    -0.03000
Br1143     Br  0.14054483  0.63145093  0.73641648    -0.01500
Br1144     Br  0.07065583  0.57299691  0.75115795    -0.01600
Br1145     Br  0.24053869  0.51239495  0.72780522    -0.01600
Br1146     Br  0.17341309  0.46043117  0.76372061    -0.01600
C1147       C  0.18402138  0.34595720  0.69282375    -0.02700
C1148       C  0.17598137  0.30772642  0.69411687     0.07000
C1149       C  0.14397861  0.29704379  0.71383280    -0.02800
C1150       C  0.11791094  0.32381449  0.72570019    -0.02800
C1151       C  0.12182037  0.36099077  0.71479251     0.07100
C1152       C  0.15557433  0.37176384  0.69835614    -0.03000
Br1153     Br  0.16254590  0.42099139  0.67946010    -0.01500
Br1154     Br  0.23363076  0.36467630  0.68755170    -0.01600
Br1155     Br  0.07633096  0.30882483  0.75471822    -0.01600
Br1156     Br  0.13707426  0.24579365  0.72606065    -0.01600
C1157       C  0.17677038  0.66623273  0.54426361    -0.02700
C1158       C  0.14019847  0.67609531  0.55301680     0.07000
C1159       C  0.13107860  0.68418104  0.58988958    -0.02800
C1160       C  0.15661424  0.67713740  0.61811821    -0.02800
C1161       C  0.19071998  0.66002934  0.61044368     0.07100
C1162       C  0.20261447  0.65958523  0.57288689    -0.03000
Br1163     Br  0.25357851  0.65319266  0.55918911    -0.01500
Br1164     Br  0.19113856  0.66209230  0.49295598    -0.01600
Br1165     Br  0.14582954  0.69341534  0.66721749    -0.01600
Br1166     Br  0.08270982  0.70293258  0.60202175    -0.01600
C1167       C  0.15868976  0.64176522  0.34220829    -0.02700
C1168       C  0.18839640  0.66616179  0.33564717     0.07000
C1169       C  0.18891677  0.70118767  0.35306150    -0.02800
C1170       C  0.16226138  0.71001328  0.38034159    -0.02800
C1171       C  0.13275719  0.68517142  0.38693359     0.07100
C1172       C  0.12913542  0.65324666  0.36406732    -0.03000
Br1173     Br  0.08382335  0.62429990  0.36208738    -0.01500
Br1174     Br  0.15949432  0.59072212  0.32567095    -0.01600
Br1175     Br  0.16839800  0.75416471  0.41006830    -0.01600
Br1176     Br  0.22812239  0.73524229  0.34167010    -0.01600
C1177       C  0.93960678  0.62002890  0.58104055    -0.02700
C1178       C  0.91214008  0.64574048  0.59126994     0.07000
C1179       C  0.91740028  0.68325210  0.58244850    -0.02800
C1180       C  0.94871883  0.69462225  0.56170095    -0.02800
C1181       C  0.97650190  0.66877028  0.55197627     0.07100
C1182       C  0.97279260  0.63214961  0.56508008    -0.03000
Br1183     Br  0.01423633  0.59849538  0.56486653    -0.01500
Br1184     Br  0.93284134  0.56759834  0.58882605    -0.01600
Br1185     Br  0.95218940  0.74523151  0.54618518    -0.01600
Br1186     Br  0.88018039  0.71841404  0.59665999    -0.01600
C1187       C  0.97513221  0.56102496  0.68850093    -0.02700
C1188       C  0.96688697  0.52977263  0.71036968     0.07000
C1189       C  0.93121237  0.52689651  0.72566379    -0.02800
C1190       C  0.90331416  0.55139020  0.71438040    -0.02800
C1191       C  0.91025174  0.57959665  0.68874901     0.07100
C1192       C  0.94763907  0.58741383  0.68079511    -0.03000
Br1193     Br  0.96305015  0.63586636  0.66592699    -0.01500
Br1194     Br  0.02352857  0.56766736  0.66721932    -0.01600
Br1195     Br  0.85602856  0.54894395  0.73663352    -0.01600
Br1196     Br  0.91900625  0.48759721  0.75923212    -0.01600
C1197       C  0.79948442  0.52180651  0.60145048    -0.02700
C1198       C  0.80356125  0.56007362  0.59467857     0.07000
C1199       C  0.78682895  0.57341926  0.56182432    -0.02800
C1200       C  0.77780667  0.54897077  0.53242484    -0.02800
C1201       C  0.78385238  0.51105865  0.53629831     0.07100
C1202       C  0.79145396  0.49727833  0.57174270    -0.03000
Br1203     Br  0.79098777  0.44470583  0.57919037    -0.01500
Br1204     Br  0.79653282  0.50351436  0.65119270    -0.01600
Br1205     Br  0.76018845  0.56737570  0.48582491    -0.01600
Br1206     Br  0.77737677  0.62505850  0.55586115    -0.01600
C1207       C  0.94353376  0.69182733  0.39821206    -0.02700
C1208       C  0.98147547  0.69382338  0.39068609     0.07000
C1209       C  0.99325713  0.69989775  0.35411551    -0.02800
C1210       C  0.96792020  0.69602911  0.32459541    -0.02800
C1211       C  0.93091504  0.68566668  0.33183584     0.07100
C1212       C  0.91812781  0.69063415  0.36874943    -0.03000
Br1213     Br  0.86624320  0.69725572  0.37906980    -0.01500
Br1214     Br  0.92660671  0.68935117  0.44872571    -0.01600
Br1215     Br  0.98240207  0.71118892  0.27582814    -0.01600
Br1216     Br  0.04363715  0.71439602  0.34471923    -0.01600
C1217       C  0.79723311  0.55261249  0.35552349    -0.02700
C1218       C  0.82216695  0.52534118  0.36778110     0.07000
C1219       C  0.85729402  0.52318406  0.35076900    -0.02800
C1220       C  0.86967071  0.55119120  0.32737668    -0.02800
C1221       C  0.84550224  0.57940866  0.31621352     0.07100
C1222       C  0.80882871  0.57919769  0.32935490    -0.03000
Br1223     Br  0.77588993  0.61778325  0.31419687    -0.01500
Br1224     Br  0.74813622  0.55540219  0.37577771    -0.01600
Br1225     Br  0.92163460  0.55274909  0.31481134    -0.01600
Br1226     Br  0.88896620  0.48106425  0.35771500    -0.01600
C1227       C  0.95630355  0.60315597  0.20369359    -0.02700
C1228       C  0.92351464  0.59315792  0.22281363     0.07000
C1229       C  0.91337907  0.55516569  0.22244800    -0.02800
C1230       C  0.93993981  0.52812767  0.21342033    -0.02800
C1231       C  0.97459488  0.53842617  0.19907354     0.07100
C1232       C  0.98111617  0.57581257  0.19094074    -0.03000
Br1233     Br  0.02539203  0.58976270  0.16488004    -0.01500
Br1234     Br  0.96796448  0.65445598  0.19533716    -0.01600
Br1235     Br  0.92973965  0.47679696  0.22316600    -0.01600
Br1236     Br  0.86408548  0.53834402  0.23355903    -0.01600
C1237       C  0.82087128  0.32684654  0.31093150    -0.02700
C1238       C  0.85859282  0.32098693  0.30507505     0.07000
C1239       C  0.88461233  0.33736671  0.32941734    -0.02800
C1240       C  0.87349995  0.36342610  0.35614211    -0.02800
C1241       C  0.83520215  0.37143319  0.36119941     0.07100
C1242       C  0.80891196  0.35162097  0.33889938    -0.03000
Br1243     Br  0.75617055  0.35688720  0.34526581    -0.01500
Br1244     Br  0.78577800  0.29953872  0.28107156    -0.01600
Br1245     Br  0.91318065  0.38734938  0.38405565    -0.01600
Br1246     Br  0.93597160  0.32228084  0.32814897    -0.01600
C1247       C  0.94965335  0.19715530  0.30900670    -0.02700
C1248       C  0.91896965  0.22147462  0.31123148     0.07000
C1249       C  0.90314112  0.22764168  0.34690533    -0.02800
C1250       C  0.92275448  0.21770010  0.37897160    -0.02800
C1251       C  0.95493498  0.19642297  0.37614577     0.07100
C1252       C  0.96604864  0.18311890  0.34121812    -0.03000
Br1253     Br  0.00641326  0.14849206  0.33711407    -0.01500
Br1254     Br  0.97172767  0.18374067  0.26241770    -0.01600
Br1255     Br  0.90617491  0.23443805  0.42714438    -0.01600
Br1256     Br  0.85489050  0.24819525  0.35472713    -0.01600
C1257       C  0.01090518  0.34000112  0.21137383    -0.02700
C1258       C  0.99723951  0.37277796  0.19618507     0.07000
C1259       C  0.96253464  0.37198882  0.17862227    -0.02800
C1260       C  0.93844930  0.34168801  0.18398836    -0.02800
C1261       C  0.95003488  0.31109616  0.20539676     0.07100
C1262       C  0.98838129  0.30819640  0.21237797    -0.03000
Br1263     Br  0.01221120  0.26079419  0.21251147    -0.01500
Br1264     Br  0.06081287  0.33821011  0.22994364    -0.01600
Br1265     Br  0.88906327  0.34406674  0.16400712    -0.01600
Br1266     Br  0.94738613  0.41294854  0.14876834    -0.01600
C1267       C  0.92199949  0.31324613  0.69966956    -0.02700
C1268       C  0.89625997  0.32502610  0.67271206     0.07000
C1269       C  0.89332927  0.36362358  0.66729618    -0.02800
C1270       C  0.92309797  0.38702943  0.67687146    -0.02800
C1271       C  0.95275805  0.37334451  0.69770708     0.07100
C1272       C  0.94966354  0.33773576  0.71269244    -0.03000
Br1273     Br  0.98257253  0.32240160  0.75122431    -0.01500
Br1274     Br  0.91887476  0.26447945  0.72051280    -0.01600
Br1275     Br  0.92168896  0.43853336  0.66384045    -0.01600
Br1276     Br  0.84602752  0.38615910  0.65785520    -0.01600
C1277       C  0.83317146  0.32662560  0.50238500    -0.02700
C1278       C  0.80195048  0.34928847  0.50709219     0.07000
C1279       C  0.77568437  0.34017568  0.53437332    -0.02800
C1280       C  0.78391980  0.31260492  0.56035003    -0.02800
C1281       C  0.81881752  0.29562461  0.56000031     0.07100
C1282       C  0.84273245  0.30148038  0.52983327    -0.03000
Br1283     Br  0.89180561  0.28123096  0.52925265    -0.01500
Br1284     Br  0.86392714  0.33101606  0.45893349    -0.01600
Br1285     Br  0.74983129  0.30147570  0.59966871    -0.01600
Br1286     Br  0.73032465  0.36730657  0.53863347    -0.01600
C1287       C  0.89100829  0.19373804  0.55656294    -0.02700
C1288       C  0.90116093  0.20846669  0.59211572     0.07000
C1289       C  0.93753090  0.20144019  0.60406655    -0.02800
C1290       C  0.96553987  0.19630538  0.57799011    -0.02800
C1291       C  0.95626408  0.18677219  0.54142077     0.07100
C1292       C  0.91893260  0.18076388  0.53231660    -0.03000
Br1293     Br  0.90670375  0.15673159  0.48585183    -0.01500
Br1294     Br  0.84109841  0.19166780  0.53812380    -0.01600
Br1295     Br  0.01569845  0.20673596  0.59207774    -0.01600
Br1296     Br  0.94882683  0.19684800  0.65577388    -0.01600
C1297       C  0.66753615  0.82167552  0.70988667    -0.02700
C1298       C  0.69290441  0.83764114  0.68532881     0.07000
C1299       C  0.68860673  0.87552793  0.67907907    -0.02800
C1300       C  0.65350322  0.89055077  0.67969305    -0.02800
C1301       C  0.62494414  0.87306247  0.69982053     0.07100
C1302       C  0.63334657  0.83954021  0.71775809    -0.03000
Br1303     Br  0.59760058  0.81658688  0.74938195    -0.01500
Br1304     Br  0.68514913  0.78218800  0.73914736    -0.01600
Br1305     Br  0.64656162  0.93313721  0.64904968    -0.01600
Br1306     Br  0.72932156  0.90933032  0.68779221    -0.01600
C1307       C  0.81001909  0.84506542  0.56591875    -0.02700
C1308       C  0.77256394  0.83957480  0.57646845     0.07000
C1309       C  0.74543289  0.86387511  0.56079201    -0.02800
C1310       C  0.75564159  0.89141011  0.53599567    -0.02800
C1311       C  0.79159915  0.89263653  0.52158760     0.07100
C1312       C  0.81899783  0.86979869  0.53708568    -0.03000
Br1313     Br  0.86918111  0.87183898  0.51897754    -0.01500
Br1314     Br  0.85050830  0.82366614  0.59242452    -0.01600
Br1315     Br  0.72038982  0.93015165  0.52491526    -0.01600
Br1316     Br  0.69274077  0.86212584  0.57281905    -0.01600
C1317       C  0.64052154  0.74584115  0.60155672    -0.02700
C1318       C  0.67831136  0.74260681  0.59296807     0.07000
C1319       C  0.68870455  0.71939879  0.56268454    -0.02800
C1320       C  0.66175477  0.70518016  0.53805293    -0.02800
C1321       C  0.62439546  0.71279752  0.54444471     0.07100
C1322       C  0.61392351  0.72898973  0.57837344    -0.03000
Br1323     Br  0.56278874  0.72801696  0.59250504    -0.01500
Br1324     Br  0.62397519  0.77834740  0.64040873    -0.01600
Br1325     Br  0.67588112  0.67788218  0.49415144    -0.01600
Br1326     Br  0.74005409  0.71039539  0.55223338    -0.01600
C1327       C  0.38611702  0.84644742  0.68659072    -0.02700
C1328       C  0.39415998  0.81035110  0.67295315     0.07000
C1329       C  0.43187118  0.79876960  0.67444556    -0.02800
C1330       C  0.46028654  0.82498608  0.68117562    -0.02800
C1331       C  0.45174449  0.86198838  0.68901975     0.07100
C1332       C  0.41470220  0.87226879  0.69359090    -0.03000
Br1333     Br  0.40311469  0.92269816  0.70685747    -0.01500
Br1334     Br  0.33591750  0.86084609  0.69721229    -0.01600
Br1335     Br  0.51168289  0.81076895  0.67897220    -0.01600
Br1336     Br  0.44748158  0.74817328  0.66882466    -0.01600
C1337       C  0.41362125  0.69857859  0.57222985    -0.02700
C1338       C  0.40653914  0.73420497  0.58631756     0.07000
C1339       C  0.43108722  0.76347550  0.57816072    -0.02800
C1340       C  0.46428728  0.75626513  0.56028611    -0.02800
C1341       C  0.46930235  0.72197344  0.54157440     0.07100
C1342       C  0.44410167  0.69259668  0.54859396    -0.03000
Br1343     Br  0.44860045  0.64484051  0.52464887    -0.01500
Br1344     Br  0.37821605  0.65951964  0.58107363    -0.01600
Br1345     Br  0.50175698  0.79503963  0.56240064    -0.01600
Br1346     Br  0.41775835  0.81491538  0.58374946    -0.01600
C1347       C  0.29743052  0.80562487  0.53802157    -0.02700
C1348       C  0.29195154  0.80669888  0.57651616     0.07000
C1349       C  0.27148979  0.83690735  0.59092460    -0.02800
C1350       C  0.26499482  0.86812672  0.56853160    -0.02800
C1351       C  0.28205355  0.87034537  0.53340542     0.07100
C1352       C  0.29979345  0.83868163  0.51897414    -0.03000
Br1353     Br  0.33300799  0.84001482  0.47727219    -0.01500
Br1354     Br  0.29332218  0.75988440  0.51007974    -0.01600
Br1355     Br  0.23693144  0.90906847  0.58766259    -0.01600
Br1356     Br  0.25284404  0.83576532  0.64081810    -0.01600
C1357       C  0.44526989  0.71336609  0.36167105    -0.02700
C1358       C  0.45860259  0.73746681  0.39007451     0.07000
C1359       C  0.43805207  0.76997247  0.39792554    -0.02800
C1360       C  0.41036934  0.78174004  0.37340602    -0.02800
C1361       C  0.39925241  0.75913059  0.34314370     0.07100
C1362       C  0.41499387  0.72386090  0.33920911    -0.03000
Br1363     Br  0.39652664  0.69140066  0.30072249    -0.01500
Br1364     Br  0.46935202  0.66715249  0.35119224    -0.01600
Br1365     Br  0.39085974  0.83109910  0.37913563    -0.01600
Br1366     Br  0.44599124  0.79841482  0.44311192    -0.01600
C1367       C  0.44832367  0.83327933  0.23098823    -0.02700
C1368       C  0.41201443  0.84610764  0.23891721     0.07000
C1369       C  0.40326080  0.88246644  0.22832090    -0.02800
C1370       C  0.43164033  0.90806390  0.22145399    -0.02800
C1371       C  0.46842192  0.89630417  0.21934688     0.07100
C1372       C  0.47650176  0.85859812  0.22210496    -0.03000
Br1373     Br  0.52665094  0.84209079  0.21588858    -0.01500
Br1374     Br  0.46012652  0.78120748  0.23074427    -0.01600
Br1375     Br  0.42006550  0.95951885  0.21643155    -0.01600
Br1376     Br  0.35393681  0.89506528  0.21341412    -0.01600
C1377       C  0.29409605  0.82092829  0.36262831    -0.02700
C1378       C  0.30052067  0.83349487  0.32597624     0.07000
C1379       C  0.28322653  0.86695811  0.31578547    -0.02800
C1380       C  0.27196753  0.89243697  0.34318674    -0.02800
C1381       C  0.27231353  0.88209048  0.38030398     0.07100
C1382       C  0.27690009  0.84472618  0.38849531    -0.03000
Br1383     Br  0.25372712  0.82590388  0.43227356    -0.01500
Br1384     Br  0.31035811  0.77398554  0.38070570    -0.01600
Br1385     Br  0.25630930  0.94126078  0.33031374    -0.01600
Br1386     Br  0.27380727  0.87753515  0.26472869    -0.01600
C1387       C  0.80351452  0.81856188  0.36036431    -0.02700
C1388       C  0.80134030  0.82435994  0.32186485     0.07000
C1389       C  0.82289902  0.85355492  0.30739166    -0.02800
C1390       C  0.83606171  0.88220880  0.33100549    -0.02800
C1391       C  0.82876686  0.88117565  0.36922702     0.07100
C1392       C  0.81553709  0.84766444  0.38398284    -0.03000
Br1393     Br  0.81079686  0.84259040  0.43662064    -0.01500
Br1394     Br  0.79174224  0.77132422  0.38141297    -0.01600
Br1395     Br  0.86271405  0.92314188  0.31098269    -0.01600
Br1396     Br  0.83362851  0.85417434  0.25508619    -0.01600
C1397       C  0.64642504  0.70763114  0.35794863    -0.02700
C1398       C  0.63845513  0.72897542  0.39003224     0.07000
C1399       C  0.66285845  0.75828687  0.39989654    -0.02800
C1400       C  0.68858429  0.77153255  0.37424669    -0.02800
C1401       C  0.69481916  0.75209004  0.34084913     0.07100
C1402       C  0.67520819  0.71883425  0.33390866    -0.03000
Br1403     Br  0.68539758  0.69086991  0.28937957    -0.01500
Br1404     Br  0.61719183  0.66457514  0.34535236    -0.01600
Br1405     Br  0.71043529  0.81962989  0.38291736    -0.01600
Br1406     Br  0.66208447  0.78055821  0.44898401    -0.01600
C1407       C  0.68219080  0.87887571  0.26081457    -0.02700
C1408       C  0.68796734  0.84436794  0.24218406     0.07000
C1409       C  0.66334239  0.83520767  0.21245476    -0.02800
C1410       C  0.63872182  0.86186406  0.19824274    -0.02800
C1411       C  0.63538488  0.89670061  0.21577486     0.07100
C1412       C  0.65908774  0.90561115  0.24574863    -0.03000
Br1413     Br  0.66003042  0.95490619  0.26797642    -0.01500
Br1414     Br  0.69699565  0.88815841  0.31191208    -0.01600
Br1415     Br  0.60825134  0.84960687  0.15587743    -0.01600
Br1416     Br  0.65486427  0.78450883  0.19714538    -0.01600
C1417       C  0.44407502  0.20591462  0.28808514    -0.02700
C1418       C  0.40732909  0.20435969  0.30161617     0.07000
C1419       C  0.39911668  0.22633606  0.33306628    -0.02800
C1420       C  0.42756879  0.23767087  0.35722073    -0.02800
C1421       C  0.46419766  0.22845301  0.34861437     0.07100
C1422       C  0.47277019  0.21619896  0.31262701    -0.03000
Br1423     Br  0.52379692  0.21144478  0.29826657    -0.01500
Br1424     Br  0.45656464  0.19501349  0.23729545    -0.01600
Br1425     Br  0.41622034  0.26236296  0.40336278    -0.01600
Br1426     Br  0.34886023  0.23973980  0.34306349    -0.01600
C1427       C  0.32888212  0.06735936  0.39647482    -0.02700
C1428       C  0.29530798  0.04794451  0.39246301     0.07000
C1429       C  0.27239949  0.05614137  0.36215780    -0.02800
C1430       C  0.28503911  0.07992040  0.33369333    -0.02800
C1431       C  0.32034519  0.09812862  0.33641964     0.07100
C1432       C  0.34269504  0.08910666  0.36769808    -0.03000
Br1433     Br  0.39532974  0.09867314  0.37007647    -0.01500
Br1434     Br  0.35655104  0.06487624  0.44248497    -0.01600
Br1435     Br  0.25587448  0.07943260  0.28880533    -0.01600
Br1436     Br  0.22371484  0.03412926  0.35909907    -0.01600
C1437       C  0.45044935  0.09983847  0.25218250    -0.02700
C1438       C  0.41496395  0.09726815  0.23629406     0.07000
C1439       C  0.40991633  0.07517583  0.20414407    -0.02800
C1440       C  0.43985161  0.05511891  0.18874864    -0.02800
C1441       C  0.47488608  0.05675349  0.20601113     0.07100
C1442       C  0.48055288  0.08262122  0.23511158    -0.03000
Br1443     Br  0.52989751  0.09396881  0.25283417    -0.01500
Br1444     Br  0.45778977  0.11981974  0.30121316    -0.01600
Br1445     Br  0.43243667  0.02535804  0.14471931    -0.01600
Br1446     Br  0.36091880  0.06835812  0.18462825    -0.01600
C1447       C  0.44419777  0.09315765  0.69926178    -0.02700
C1448       C  0.43969716  0.10331141  0.66183201     0.07000
C1449       C  0.45774286  0.08114725  0.63486822    -0.02800
C1450       C  0.46846588  0.04492913  0.64296482    -0.02800
C1451       C  0.46831579  0.03202162  0.68026809     0.07100
C1452       C  0.45640683  0.05718422  0.70838717    -0.03000
Br1453     Br  0.45598140  0.04366707  0.75989781    -0.01500
Br1454     Br  0.44545671  0.13100386  0.73743844    -0.01600
Br1455     Br  0.47983582  0.01380612  0.60002538    -0.01600
Br1456     Br  0.46700111  0.09918806  0.58541450    -0.01600
C1457       C  0.42071226  0.18694263  0.50282909    -0.02700
C1458       C  0.44462256  0.21774502  0.50605649     0.07000
C1459       C  0.44142154  0.24057918  0.53788142    -0.02800
C1460       C  0.41886335  0.22929347  0.56785502    -0.02800
C1461       C  0.40132068  0.19420392  0.56762947     0.07100
C1462       C  0.40270173  0.17307205  0.53423999    -0.03000
Br1463     Br  0.38886413  0.12179680  0.53165688    -0.01500
Br1464     Br  0.41360905  0.16256336  0.45523726    -0.01600
Br1465     Br  0.41524605  0.26031181  0.61096678    -0.01600
Br1466     Br  0.46930443  0.28601086  0.54193120    -0.01600
C1467       C  0.31676750  0.06075285  0.60642491    -0.02700
C1468       C  0.32155549  0.09728030  0.59314774     0.07000
C1469       C  0.30441452  0.10606361  0.55907135    -0.02800
C1470       C  0.29113455  0.07729103  0.53561202    -0.02800
C1471       C  0.29552912  0.04012107  0.54575395     0.07100
C1472       C  0.30623735  0.03201806  0.58202108    -0.03000
Br1473     Br  0.30819312  0.98142025  0.59770083    -0.01500
Br1474     Br  0.32605160  0.04948503  0.65787419    -0.01600
Br1475     Br  0.26877651  0.08847439  0.48859819    -0.01600
Br1476     Br  0.30037537  0.15613380  0.54240201    -0.01600
C1477       C  0.82910579  0.05624745  0.33386657    -0.02700
C1478       C  0.81649007  0.05798737  0.37041576     0.07000
C1479       C  0.79955455  0.09064599  0.38327235    -0.02800
C1480       C  0.78808861  0.11752082  0.35788962    -0.02800
C1481       C  0.79194541  0.11032209  0.31954910     0.07100
C1482       C  0.81655239  0.08217400  0.30828642    -0.03000
Br1483     Br  0.83173915  0.07799956  0.25753729    -0.01500
Br1484     Br  0.86272488  0.01819223  0.31896066    -0.01600
Br1485     Br  0.76771808  0.16315554  0.37634378    -0.01600
Br1486     Br  0.79240222  0.09838930  0.43556460    -0.01600
C1487       C  0.67366000  0.21531897  0.32153050    -0.02700
C1488       C  0.68843042  0.17945481  0.32366396     0.07000
C1489       C  0.67523403  0.15558812  0.35139498    -0.02800
C1490       C  0.64775742  0.16727275  0.37628622    -0.02800
C1491       C  0.62988162  0.20171520  0.37160899     0.07100
C1492       C  0.64394923  0.22620499  0.34472744    -0.03000
Br1493     Br  0.62062714  0.27312853  0.33667617    -0.01500
Br1494     Br  0.69189768  0.24823599  0.28432154    -0.01600
Br1495     Br  0.63521544  0.13483245  0.41678239    -0.01600
Br1496     Br  0.69171275  0.10484069  0.35332091    -0.01600
C1497       C  0.66157778  0.10605621  0.20103100    -0.02700
C1498       C  0.69362109  0.09090505  0.21779565     0.07000
C1499       C  0.70114440  0.05311935  0.21011325    -0.02800
C1500       C  0.67290565  0.03025435  0.19558265    -0.02800
C1501       C  0.63746285  0.04452239  0.19055921     0.07100
C1502       C  0.63277372  0.08268468  0.18910513    -0.03000
Br1503     Br  0.58709731  0.10234104  0.17068861    -0.01500
Br1504     Br  0.65596793  0.15848975  0.19528594    -0.01600
Br1505     Br  0.68266634  0.98053563  0.17875782    -0.01600
Br1506     Br  0.74991536  0.03282716  0.21332375    -0.01600
C1507       C  0.71765380  0.08111403  0.54391837    -0.02700
C1508       C  0.74020755  0.09740055  0.57149998     0.07000
C1509       C  0.77858425  0.09264722  0.56952404    -0.02800
C1510       C  0.79429634  0.06841947  0.54276325    -0.02800
C1511       C  0.77143098  0.04949380  0.51637949     0.07100
C1512       C  0.73293867  0.05835913  0.51603459    -0.03000
Br1513     Br  0.69905576  0.04094848  0.47773201    -0.01500
Br1514     Br  0.66480633  0.08915179  0.54488875    -0.01600
Br1515     Br  0.84704823  0.06129497  0.54435131    -0.01600
Br1516     Br  0.80918891  0.11880120  0.60480106    -0.01600
C1517       C  0.62289417  0.08906383  0.69554375    -0.02700
C1518       C  0.65813712  0.08036106  0.68158617     0.07000
C1519       C  0.67325144  0.04603369  0.69244726    -0.02800
C1520       C  0.64948492  0.01835833  0.70595074    -0.02800
C1521       C  0.61130558  0.02420910  0.70569324     0.07100
C1522       C  0.59839163  0.06055967  0.70461021    -0.03000
Br1523     Br  0.54830745  0.07169919  0.71741808    -0.01500
Br1524     Br  0.61167659  0.13863464  0.71062782    -0.01600
Br1525     Br  0.66838926  0.97592690  0.73090667    -0.01600
Br1526     Br  0.72573567  0.03749647  0.69249966    -0.01600
C1527       C  0.61432597  0.19037316  0.58952372    -0.02700
C1528       C  0.65203622  0.18019612  0.58286233     0.07000
C1529       C  0.66663019  0.18773447  0.54682550    -0.02800
C1530       C  0.64321514  0.20049103  0.51849694    -0.02800
C1531       C  0.60520990  0.20373572  0.52451253     0.07100
C1532       C  0.59109982  0.20066433  0.56022870    -0.03000
Br1533     Br  0.53929187  0.21074097  0.56852414    -0.01500
Br1534     Br  0.59230308  0.19223553  0.63810097    -0.01600
Br1535     Br  0.66277630  0.21405986  0.47075851    -0.01600
Br1536     Br  0.71710180  0.17925341  0.53217167    -0.01600
C1537       C  0.46465881  0.73090015  0.86352499    -0.02700
C1538       C  0.49913185  0.71411024  0.86843405     0.07000
C1539       C  0.50914238  0.68479622  0.84478241    -0.02800
C1540       C  0.48272697  0.66746991  0.82196645    -0.02800
C1541       C  0.44831892  0.68496121  0.81422118     0.07100
C1542       C  0.43929536  0.71667447  0.83678104    -0.03000
Br1543     Br  0.39014618  0.73734135  0.83815379    -0.01500
Br1544     Br  0.45115288  0.77160777  0.89580464    -0.01600
Br1545     Br  0.49124968  0.61508118  0.81429219    -0.01600
Br1546     Br  0.55880064  0.66525186  0.84676103    -0.01600
C1547       C  0.45275087  0.54907993  0.67599297    -0.02700
C1548       C  0.45549028  0.51659869  0.69753540     0.07000
C1549       C  0.43586032  0.51558714  0.73127582    -0.02800
C1550       C  0.42164929  0.54807290  0.74707281    -0.02800
C1551       C  0.41822019  0.58038132  0.72586085     0.07100
C1552       C  0.43299295  0.58018424  0.68970881    -0.03000
Br1553     Br  0.42957251  0.62439611  0.66083236    -0.01500
Br1554     Br  0.47746620  0.55292812  0.62893105    -0.01600
Br1555     Br  0.41580808  0.54875129  0.80005594    -0.01600
Br1556     Br  0.42769987  0.46971450  0.75683102    -0.01600
C1557       C  0.31422379  0.53749255  0.83690895    -0.02700
C1558       C  0.31853797  0.54552262  0.87488768     0.07000
C1559       C  0.32767388  0.58161166  0.88618074    -0.02800
C1560       C  0.33481269  0.60860307  0.85951894    -0.02800
C1561       C  0.34039059  0.59826018  0.82186376     0.07100
C1562       C  0.32668106  0.56293212  0.81022595    -0.03000
Br1563     Br  0.32641135  0.54625797  0.75937078    -0.01500
Br1564     Br  0.29173404  0.49119424  0.82176029    -0.01600
Br1565     Br  0.33390389  0.65994126  0.87463509    -0.01600
Br1566     Br  0.33155509  0.59389577  0.93814364    -0.01600
C1567       C  0.78037016  0.55204485  0.79547315    -0.02700
C1568       C  0.77081519  0.58885711  0.80691183     0.07000
C1569       C  0.78633482  0.60275773  0.84083453    -0.02800
C1570       C  0.80301438  0.57804446  0.86554145    -0.02800
C1571       C  0.80468986  0.54042626  0.85665876     0.07100
C1572       C  0.79750348  0.52832831  0.82052036    -0.03000
Br1573     Br  0.81002088  0.47829425  0.80651802    -0.01500
Br1574     Br  0.76869570  0.53141223  0.74665282    -0.01600
Br1575     Br  0.82316594  0.59460841  0.91244887    -0.01600
Br1576     Br  0.78305557  0.65367492  0.85753085    -0.01600
C1577       C  0.67173213  0.67855583  0.89617388    -0.02700
C1578       C  0.64638935  0.70748907  0.89297594     0.07000
C1579       C  0.63980788  0.72281077  0.85793477    -0.02800
C1580       C  0.65630648  0.70718025  0.82610835    -0.02800
C1581       C  0.68179226  0.67785400  0.82904706     0.07100
C1582       C  0.68676465  0.66187893  0.86429297    -0.03000
Br1583     Br  0.70110058  0.61108204  0.86884660    -0.01500
Br1584     Br  0.68285981  0.65936288  0.94457589    -0.01600
Br1585     Br  0.63526501  0.71870961  0.77867405    -0.01600
Br1586     Br  0.60376748  0.76153878  0.85243640    -0.01600
C1587       C  0.64073638  0.55615086  0.75564414    -0.02700
C1588       C  0.65376914  0.58439479  0.73216623     0.07000
C1589       C  0.63795290  0.58586018  0.69617511    -0.02800
C1590       C  0.61581334  0.55592022  0.68258441    -0.02800
C1591       C  0.61051173  0.52387788  0.70429426     0.07100
C1592       C  0.62507447  0.52409308  0.74073839    -0.03000
Br1593     Br  0.62704642  0.48054390  0.77160669    -0.01500
Br1594     Br  0.64064723  0.56135764  0.80916341    -0.01600
Br1595     Br  0.59135730  0.56042134  0.63535554    -0.01600
Br1596     Br  0.63767666  0.63160065  0.66928927    -0.01600
C1597       C  0.73186246  0.36333892  0.80737743    -0.02700
C1598       C  0.75278742  0.33153154  0.79932622     0.07000
C1599       C  0.78877452  0.32886310  0.81401493    -0.02800
C1600       C  0.80242202  0.35620137  0.83924257    -0.02800
C1601       C  0.78059892  0.38741659  0.84839223     0.07100
C1602       C  0.74699599  0.39229399  0.82875164    -0.03000
Br1603     Br  0.72083927  0.43890959  0.82973918    -0.01500
Br1604     Br  0.68034865  0.36614131  0.79331282    -0.01600
Br1605     Br  0.84993624  0.34932894  0.86201601    -0.01600
Br1606     Br  0.81757174  0.28568551  0.80228612    -0.01600
C1607       C  0.68855940  0.35677713  0.70155254    -0.02700
C1608       C  0.68061399  0.31864065  0.69991386     0.07000
C1609       C  0.65350166  0.30665886  0.67462713    -0.02800
C1610       C  0.62755097  0.33182077  0.66060379    -0.02800
C1611       C  0.62854529  0.36878237  0.67323435     0.07100
C1612       C  0.66141736  0.38191940  0.68997416    -0.03000
Br1613     Br  0.66970094  0.43418286  0.69546136    -0.01500
Br1614     Br  0.73711768  0.37451773  0.71467900    -0.01600
Br1615     Br  0.59305256  0.31665570  0.62291877    -0.01600
Br1616     Br  0.65574185  0.25658124  0.65752173    -0.01600
C1617       C  0.68038397  0.21609257  0.84362896    -0.02700
C1618       C  0.66191808  0.22874449  0.81111072     0.07000
C1619       C  0.62423419  0.21788648  0.80640304    -0.02800
C1620       C  0.60505713  0.20080050  0.83580602    -0.02800
C1621       C  0.62220278  0.19646896  0.87040827     0.07100
C1622       C  0.66005374  0.20333894  0.87389447    -0.03000
Br1623     Br  0.68367776  0.19812399  0.92133206    -0.01500
Br1624     Br  0.73380194  0.21566378  0.84851124    -0.01600
Br1625     Br  0.55458519  0.18424539  0.82961184    -0.01600
Br1626     Br  0.59817574  0.22235933  0.76020141    -0.01600
C1627       C  0.44027661  0.29417604  0.69349531    -0.02700
C1628       C  0.40542852  0.30813127  0.70448958     0.07000
C1629       C  0.39466183  0.34269202  0.69000791    -0.02800
C1630       C  0.42161647  0.36621172  0.67415511    -0.02800
C1631       C  0.45884486  0.35521445  0.67248577     0.07100
C1632       C  0.46754826  0.31834214  0.68021715    -0.03000
Br1633     Br  0.51776589  0.30200714  0.67777591    -0.01500
Br1634     Br  0.45147719  0.24208049  0.69847562    -0.01600
Br1635     Br  0.40876941  0.41540121  0.65914680    -0.01600
Br1636     Br  0.34435589  0.35944665  0.69228209    -0.01600
C1637       C  0.34633690  0.37357365  0.80440640    -0.02700
C1638       C  0.32376898  0.34221986  0.79834360     0.07000
C1639       C  0.28974095  0.34025593  0.81703219    -0.02800
C1640       C  0.28124771  0.36571282  0.84593005    -0.02800
C1641       C  0.30695972  0.39377058  0.85593890     0.07100
C1642       C  0.33838532  0.39893680  0.83310427    -0.03000
Br1643     Br  0.37249850  0.43963803  0.84173437    -0.01500
Br1644     Br  0.39133437  0.37906269  0.77675034    -0.01600
Br1645     Br  0.23644957  0.35922883  0.87385654    -0.01600
Br1646     Br  0.25645590  0.30062258  0.80440550    -0.01600
C1647       C  0.43803149  0.20683359  0.87765952    -0.02700
C1648       C  0.47279090  0.22498840  0.87999397     0.07000
C1649       C  0.47881015  0.25672998  0.85846109    -0.02800
C1650       C  0.45021642  0.27111875  0.83710068    -0.02800
C1651       C  0.41759717  0.25016140  0.83013387     0.07100
C1652       C  0.41011478  0.22039113  0.85413234    -0.03000
Br1653     Br  0.35983846  0.20482883  0.86302608    -0.01500
Br1654     Br  0.42725548  0.16399242  0.90710189    -0.01600
Br1655     Br  0.45397445  0.32289054  0.82485798    -0.01600
Br1656     Br  0.52695996  0.28027077  0.85525240    -0.01600
C1657       C  0.39649638  0.37783672  0.16246697    -0.02700
C1658       C  0.39033539  0.34362495  0.17985055     0.07000
C1659       C  0.41085777  0.33571311  0.21212932    -0.02800
C1660       C  0.44032640  0.35920315  0.22363756    -0.02800
C1661       C  0.44806741  0.39179824  0.20394118     0.07100
C1662       C  0.42351176  0.40257671  0.17593238    -0.03000
Br1663     Br  0.42822068  0.45096971  0.15436566    -0.01500
Br1664     Br  0.37519674  0.38798710  0.11507648    -0.01600
Br1665     Br  0.47216036  0.34448097  0.26349154    -0.01600
Br1666     Br  0.40210658  0.28961634  0.23687481    -0.01600
C1667       C  0.41038677  0.21541172  0.06279421    -0.02700
C1668       C  0.41626509  0.24852822  0.08377346     0.07000
C1669       C  0.44936801  0.26850518  0.07721278    -0.02800
C1670       C  0.47931221  0.25113746  0.06066349    -0.02800
C1671       C  0.47400868  0.21827765  0.03969536     0.07100
C1672       C  0.43909415  0.20055203  0.04066857    -0.03000
Br1673     Br  0.42905547  0.15759990  0.00988263    -0.01500
Br1674     Br  0.36166145  0.19387716  0.05756554    -0.01600
Br1675     Br  0.52720934  0.27468312  0.06675101    -0.01600
Br1676     Br  0.45185427  0.32219493  0.07932040    -0.01600
C1677       C  0.29182371  0.36320844  0.09179501    -0.02700
C1678       C  0.30365165  0.32721446  0.08181684     0.07000
C1679       C  0.29621485  0.31522503  0.04495259    -0.02800
C1680       C  0.29140936  0.34124502  0.01681025    -0.02800
C1681       C  0.28945522  0.37889753  0.02614449     0.07100
C1682       C  0.28522194  0.38921204  0.06366895    -0.03000
Br1683     Br  0.27081403  0.43894582  0.07616843    -0.01500
Br1684     Br  0.28268501  0.37730323  0.14253492    -0.01600
Br1685     Br  0.28847263  0.32566461  0.96566261    -0.01600
Br1686     Br  0.29255821  0.26318177  0.03327574    -0.01600
C1687       C  0.67334487  0.71575980  0.10304524    -0.02700
C1688       C  0.67012932  0.67855380  0.11369805     0.07000
C1689       C  0.63762541  0.65888859  0.10411860    -0.02800
C1690       C  0.61040667  0.67561703  0.08261563    -0.02800
C1691       C  0.61852487  0.70856573  0.06366123     0.07100
C1692       C  0.64862940  0.73040023  0.07651296    -0.03000
Br1693     Br  0.65711428  0.77905305  0.05743923    -0.01500
Br1694     Br  0.71255084  0.74527953  0.12424494    -0.01600
Br1695     Br  0.56201762  0.65272310  0.07876126    -0.01600
Br1696     Br  0.63188793  0.60706076  0.11402802    -0.01600
C1697       C  0.74880064  0.58488492  0.04379394    -0.02700
C1698       C  0.76924246  0.59025972  0.07720298     0.07000
C1699       C  0.80296487  0.56996812  0.08021044    -0.02800
C1700       C  0.81564699  0.54722748  0.05020965    -0.02800
C1701       C  0.79557189  0.54507637  0.01668694     0.07100
C1702       C  0.76490115  0.56834506  0.01276077    -0.03000
Br1703     Br  0.74226071  0.57612884  0.96486539    -0.01500
Br1704     Br  0.69537338  0.58711694  0.04144028    -0.01600
Br1705     Br  0.85996498  0.51859532  0.05536236    -0.01600
Br1706     Br  0.82912538  0.56684463  0.12664976    -0.01600
C1707       C  0.69623156  0.54219749  0.19524997    -0.02700
C1708       C  0.68569636  0.57930082  0.18884477     0.07000
C1709       C  0.65074175  0.59076387  0.20328829    -0.02800
C1710       C  0.62541100  0.56399691  0.21628203    -0.02800
C1711       C  0.63330271  0.52620864  0.21260186     0.07100
C1712       C  0.66942677  0.51538604  0.20404778    -0.03000
Br1713     Br  0.68180970  0.46375452  0.20319478    -0.01500
Br1714     Br  0.74767751  0.52820293  0.19455333    -0.01600
Br1715     Br  0.57887435  0.57850923  0.23800073    -0.01600
Br1716     Br  0.63408140  0.64132647  0.20464461    -0.01600
C1717       C  0.73649220  0.33073312  0.02812488    -0.02700
C1718       C  0.75236310  0.32872192  0.06415622     0.07000
C1719       C  0.77977618  0.35572694  0.07398513    -0.02800
C1720       C  0.79433647  0.37965511  0.04704509    -0.02800
C1721       C  0.78070844  0.37824836  0.01063158     0.07100
C1722       C  0.75318405  0.35237321  0.00094815    -0.03000
Br1723     Br  0.73708989  0.34747773  0.94993266    -0.01500
Br1724     Br  0.68638448  0.31464931  0.01719960    -0.01600
Br1725     Br  0.83099318  0.41640593  0.06066936    -0.01600
Br1726     Br  0.79263772  0.36629247  0.12515277    -0.01600
C1727       C  0.66931343  0.33397552  0.20109137    -0.02700
C1728       C  0.66131448  0.31731464  0.16642323     0.07000
C1729       C  0.62592991  0.32140580  0.15099209    -0.02800
C1730       C  0.59837353  0.33970608  0.17108916    -0.02800
C1731       C  0.60770351  0.36105942  0.20282099     0.07100
C1732       C  0.64281269  0.35655183  0.21900153    -0.03000
Br1733     Br  0.65575440  0.38360544  0.26344616    -0.01500
Br1734     Br  0.71855260  0.33103673  0.22047524    -0.01600
Br1735     Br  0.54806547  0.33861830  0.15305020    -0.01600
Br1736     Br  0.61670975  0.30832869  0.09973193    -0.01600
C1737       C  0.63884080  0.21034892  0.10270662    -0.02700
C1738       C  0.67657823  0.21334142  0.09251138     0.07000
C1739       C  0.68887578  0.19039496  0.06285588    -0.02800
C1740       C  0.66315516  0.17408155  0.03816446    -0.02800
C1741       C  0.62547361  0.18059559  0.04318612     0.07100
C1742       C  0.61351331  0.19359535  0.07785713    -0.03000
Br1743     Br  0.56226281  0.18750783  0.09054819    -0.01500
Br1744     Br  0.62005494  0.22963757  0.14875341    -0.01600
Br1745     Br  0.67860296  0.14194492  0.99845536    -0.01600
Br1746     Br  0.74067967  0.18252082  0.05496128    -0.01600
C1747       C  0.44225707  0.72429667  0.09088894    -0.02700
C1748       C  0.41247741  0.70184235  0.07807639     0.07000
C1749       C  0.40511495  0.70134025  0.03959518    -0.02800
C1750       C  0.43367768  0.70964833  0.01495727    -0.02800
C1751       C  0.46704204  0.72442400  0.02862627     0.07100
C1752       C  0.46986639  0.73530258  0.06599203    -0.03000
Br1753     Br  0.51337156  0.76115191  0.08366209    -0.01500
Br1754     Br  0.44661063  0.73854099  0.14232991    -0.01600
Br1755     Br  0.42780345  0.69857751  0.96292650    -0.01600
Br1756     Br  0.35547807  0.69658891  0.02033884    -0.01600
C1757       C  0.46173315  0.58792156  0.14967837    -0.02700
C1758       C  0.43135341  0.60144794  0.17040962     0.07000
C1759       C  0.42630480  0.58797960  0.20681827    -0.02800
C1760       C  0.44930743  0.55944208  0.22036399    -0.02800
C1761       C  0.48078740  0.54849630  0.19998781     0.07100
C1762       C  0.48869232  0.56679967  0.16668400    -0.03000
Br1763     Br  0.53678227  0.56348865  0.14341774    -0.01500
Br1764     Br  0.46410910  0.59061694  0.09611222    -0.01600
Br1765     Br  0.43650220  0.53463342  0.26541583    -0.01600
Br1766     Br  0.38857563  0.60803148  0.23837476    -0.01600
C1767       C  0.34692411  0.55084703  0.09652222    -0.02700
C1768       C  0.33306993  0.58691314  0.09490724     0.07000
C1769       C  0.30391289  0.59382404  0.07010031    -0.02800
C1770       C  0.29321444  0.56727408  0.04300769    -0.02800
C1771       C  0.31212577  0.53331840  0.04040088     0.07100
C1772       C  0.33779677  0.52464721  0.06865870    -0.03000
Br1773     Br  0.36211463  0.47735430  0.06907703    -0.01500
Br1774     Br  0.37764825  0.53674932  0.13709274    -0.01600
Br1775     Br  0.25522381  0.57941896  0.00782790    -0.01600
Br1776     Br  0.27905073  0.64028823  0.07382633    -0.01600
loop_ 
_geom_bond_atom_site_label_1 
_geom_bond_atom_site_label_2 
_geom_bond_distance 
_geom_bond_site_symmetry_2 
_ccdc_geom_bond_type 
C1            C2   1.541       .  S
C1            C7   1.532       .  S
C1            C5   1.506       .  S
C1         C1748   1.535       .  S
C2            H9   1.082       .  S
C2            C3   1.363       .  D
C3            C4   1.549       .  S
C3         C1768   1.503       .  S
C4            C8   1.560       .  S
C4            C6   1.567       .  S
C4           H10   1.105       .  S
C5           H11   1.086       .  S
C5            C6   1.364       .  D
C6          C565   1.519       .  S
C7           H12   1.086       .  S
C7            C8   1.367       .  D
C8         C1758   1.509       .  S
C13          C14   1.524       .  S
C13          C19   1.540       .  S
C13          C17   1.533       .  S
C13        C1718   1.540       .  S
C14          H21   1.087       .  S
C14          C15   1.356       .  D
C15          C16   1.546       .  S
C15        C1728   1.485       .  S
C16          C20   1.551       .  S
C16          C18   1.559       .  S
C16          H22   1.102       .  S
C17          H23   1.086       .  S
C17          C18   1.369       .  D
C18         C553   1.520       .  S
C19          H24   1.082       .  S
C19          C20   1.368       .  D
C20        C1738   1.511       .  S
C25          C26   1.538       .  S
C25          C31   1.535       .  S
C25          C29   1.547       .  S
C25        C1698   1.562       .  S
C26          H33   1.085       .  S
C26          C27   1.356       .  D
C27          C28   1.548       .  S
C27        C1688   1.493       .  S
C28          C32   1.543       .  S
C28          C30   1.554       .  S
C28          H34   1.089       .  S
C29          H35   1.079       .  S
C29          C30   1.379       .  D
C30         C608   1.508       .  S
C31          H36   1.085       .  S
C31          C32   1.373       .  D
C32        C1708   1.522       .  S
C37          C38   1.526       .  S
C37          C43   1.521       .  S
C37          C41   1.530       .  S
C37        C1668   1.536       .  S
C38          H45   1.086       .  S
C38          C39   1.352       .  D
C39          C40   1.560       .  S
C39        C1658   1.493       .  S
C40          C44   1.563       .  S
C40          C42   1.560       .  S
C40          H46   1.097       .  S
C41          H47   1.085       .  S
C41          C42   1.375       .  D
C42         C541   1.527       .  S
C43          H48   1.086       .  S
C43          C44   1.368       .  D
C44        C1678   1.519       .  S
O49         Cu57   2.035       .  S
O49          C59   1.279       .  A
O50         Cu57   2.039       .  S
O50          C60   1.279       .  A
O51         Cu57   2.082       .  S
O51          C61   1.287       .  A
O52         Cu57   2.078       .  S
O52          C62   1.286       .  A
O53         Cu58   1.942       .  S
O53          C62   1.269       .  A
O54         Cu58   1.938       .  S
O54          C61   1.269       .  A
O55         Cu58   2.003       .  S
O55          C60   1.279       .  A
O56         Cu58   2.010       .  S
O56          C59   1.277       .  A
Cu57        Cu58   2.363       .  S
C59        C1711   1.481       .  S
C60        C1661   1.491       .  S
C61        C1731   1.486       .  S
C62        C1761   1.493       .  S
C63          C64   1.513       .  S
C63          C69   1.531       .  S
C63          C67   1.537       .  S
C63        C1651   1.544       .  S
C64          H71   1.088       .  S
C64          C65   1.359       .  D
C65          C66   1.566       .  S
C65        C1638   1.494       .  S
C66          C70   1.555       .  S
C66          C68   1.551       .  S
C66          H72   1.104       .  S
C67          H73   1.084       .  S
C67          C68   1.373       .  D
C68         C582   1.495       .  S
C69          H74   1.083       .  S
C69          C70   1.371       .  D
C70        C1628   1.514       .  S
C75          C76   1.555       .  S
C75          C81   1.533       .  S
C75          C79   1.518       .  S
C75        C1618   1.552       .  S
C76          H83   1.079       .  S
C76          C77   1.384       .  D
C77          C78   1.544       .  S
C77        C1608   1.503       .  S
C78          C82   1.554       .  S
C78          C80   1.550       .  S
C78          H84   1.108       .  S
C79          H85   1.088       .  S
C79          C80   1.354       .  D
C80         C591   1.477       .  S
C81          H86   1.088       .  S
C81          C82   1.357       .  D
C82        C1598   1.493       .  S
C87          C88   1.513       .  S
C87          C93   1.534       .  S
C87          C91   1.550       .  S
C87        C1588   1.549       .  S
C88          H95   1.087       .  S
C88          C89   1.357       .  D
C89          C90   1.571       .  S
C89        C1581   1.499       .  S
C90          C94   1.549       .  S
C90          C92   1.543       .  S
C90          H96   1.099       .  S
C91          H97   1.081       .  S
C91          C92   1.374       .  D
C92         C810   1.503       .  S
C93          H98   1.080       .  S
C93          C94   1.366       .  D
C94        C1568   1.514       .  S
C99         C100   1.538       .  S
C99         C105   1.533       .  S
C99         C103   1.541       .  S
C99        C1541   1.558       .  S
C100        H107   1.083       .  S
C100        C101   1.361       .  D
C101        C102   1.560       .  S
C101       C1551   1.502       .  S
C102        C106   1.548       .  S
C102        C104   1.545       .  S
C102        H108   1.100       .  S
C103        H109   1.084       .  S
C103        C104   1.370       .  D
C104        C618   1.489       .  S
C105        H110   1.086       .  S
C105        C106   1.371       .  D
C106       C1561   1.519       .  S
O111       Cu119   2.013       .  S
O111        C121   1.276       .  A
O112       Cu119   2.023       .  S
O112        C122   1.277       .  A
O113       Cu119   2.058       .  S
O113        C123   1.285   1_556  A
O114       Cu119   2.062       .  S
O114        C124   1.284       .  A
O115       Cu120   1.991       .  S
O115        C124   1.275       .  A
O116       Cu120   1.990       .  S
O116        C123   1.274   1_556  A
O117       Cu120   2.023       .  S
O117        C122   1.280       .  A
O118       Cu120   2.024       .  S
O118        C121   1.280       .  A
Cu119      Cu120   2.367       .  S
C121       C1558   1.478       .  S
C122       C1681   1.482   1_556  S
C123       C1771   1.498       .  S
C124       C1641   1.501       .  S
O125       Cu133   2.022       .  S
O125        C135   1.278       .  A
O126       Cu133   2.009       .  S
O126        C136   1.276   1_556  A
O127       Cu133   2.073   1_554  S
O127        C137   1.285       .  A
O128       Cu133   2.065       .  S
O128        C138   1.284       .  A
O129       Cu134   1.965       .  S
O129        C138   1.273       .  A
O130       Cu134   1.971   1_554  S
O130        C137   1.274       .  A
O131       Cu134   1.981       .  S
O131        C136   1.274   1_556  A
O132       Cu134   1.985       .  S
O132        C135   1.276       .  A
Cu133      Cu134   2.369       .  S
C135       C1578   1.479       .  S
C136       C1751   1.461       .  S
C137       C1691   1.501       .  S
C138       C1538   1.488       .  S
O139       Cu147   1.970       .  S
O139        C149   1.274       .  A
O140       Cu147   1.993       .  S
O140        C150   1.276       .  A
O141       Cu147   1.961       .  S
O141        C151   1.270       .  A
O142       Cu147   1.956       .  S
O142        C152   1.271       .  A
O143       Cu148   2.089       .  S
O143        C152   1.287       .  A
O144       Cu148   2.084       .  S
O144        C151   1.287       .  A
O145       Cu148   2.013       .  S
O145        C150   1.275       .  A
O146       Cu148   2.034       .  S
O146        C149   1.279       .  A
Cu147      Cu148   2.364       .  S
C149       C1721   1.475   1_556  S
C150       C1571   1.466       .  S
C151       C1601   1.506       .  S
C152       C1701   1.504   1_556  S
O153       Cu161   2.028       .  S
O153        C163   1.279       .  A
O154       Cu161   2.043       .  S
O154        C164   1.279   1_556  A
O155       Cu161   2.047       .  S
O155        C165   1.282   1_556  A
O156       Cu161   2.046       .  S
O156        C166   1.283       .  A
O157       Cu162   1.964       .  S
O157        C166   1.271       .  A
O158       Cu162   1.940       .  S
O158        C165   1.268   1_556  A
O159       Cu162   2.006   1_554  S
O159        C164   1.278       .  A
O160       Cu162   1.987       .  S
O160        C163   1.276       .  A
Cu161      Cu162   2.366       .  S
C163       C1648   1.492       .  S
C164       C1741   1.482       .  S
C165       C1671   1.487       .  S
C166       C1621   1.472       .  S
O167       Cu175   2.049       .  S
O167        C177   1.280       .  A
O168       Cu175   2.055       .  S
O168        C178   1.281       .  A
O169       Cu175   2.066       .  S
O169        C179   1.285       .  A
O170       Cu175   2.061       .  S
O170        C180   1.283       .  A
O171       Cu176   1.946       .  S
O171        C180   1.268       .  A
O172       Cu176   1.977       .  S
O172        C179   1.272       .  A
O173       Cu176   2.016       .  S
O173        C178   1.279       .  A
O174       Cu176   1.995       .  S
O174        C177   1.277       .  A
Cu175      Cu176   2.359       .  S
C177       C1548   1.508       .  S
C178       C1611   1.491       .  S
C179       C1631   1.483       .  S
C180       C1591   1.499       .  S
C181        C182   1.530       .  S
C181        C187   1.538       .  S
C181        C185   1.516       .  S
C181       C1518   1.533       .  S
C182        H189   1.086       .  S
C182        C183   1.361       .  D
C183        C184   1.558       .  S
C183       C1508   1.496       .  S
C184        C188   1.568       .  S
C184        C186   1.550       .  S
C184        H190   1.100       .  S
C185        H191   1.087       .  S
C185        C186   1.362       .  D
C186        C594   1.492       .  S
C187        H192   1.083       .  S
C187        C188   1.378       .  D
C188       C1528   1.530       .  S
C193        C194   1.532       .  S
C193        C199   1.540       .  S
C193        C197   1.519       .  S
C193       C1498   1.539       .  S
C194        H201   1.088       .  S
C194        C195   1.357       .  D
C195        C196   1.559       .  S
C195       C1488   1.497       .  S
C196        C200   1.551       .  S
C196        C198   1.552       .  S
C196        H202   1.108       .  S
C197        H203   1.087       .  S
C197        C198   1.359       .  D
C198        C560   1.481       .  S
C199        H204   1.080       .  S
C199        C200   1.375       .  D
C200       C1481   1.499       .  S
C205        C206   1.529       .  S
C205        C211   1.534       .  S
C205        C209   1.541       .  S
C205       C1448   1.557       .  S
C206        H213   1.085       .  S
C206        C207   1.365       .  D
C207        C208   1.575       .  S
C207       C1461   1.513       .  S
C208        C212   1.549       .  S
C208        C210   1.557       .  S
C208        H214   1.104       .  S
C209        H215   1.077       .  S
C209        C210   1.370       .  D
C210        C579   1.500       .  S
C211        H216   1.086       .  S
C211        C212   1.363       .  D
C212       C1468   1.514       .  S
C217        C218   1.547       .  S
C217        C223   1.532       .  S
C217        C221   1.549       .  S
C217       C1431   1.565       .  S
C218        H225   1.084       .  S
C218        C219   1.377       .  D
C219        C220   1.537       .  S
C219       C1418   1.510       .  S
C220        C224   1.542       .  S
C220        C222   1.550       .  S
C220        H226   1.093       .  S
C221        H227   1.078       .  S
C221        C222   1.377       .  D
C222        C546   1.509       .  S
C223        H228   1.087       .  S
C223        C224   1.355       .  D
C224       C1438   1.495       .  S
O229       Cu237   2.002       .  S
O229        C239   1.277       .  A
O230       Cu237   2.011       .  S
O230        C240   1.278       .  A
O231       Cu237   1.979       .  S
O231        C241   1.274       .  A
O232       Cu237   1.975       .  S
O232        C242   1.272       .  A
O233       Cu238   2.070       .  S
O233        C242   1.286       .  A
O234       Cu238   2.070       .  S
O234        C241   1.285       .  A
O235       Cu238   2.007       .  S
O235        C240   1.275       .  A
O236       Cu238   2.017       .  S
O236        C239   1.276       .  A
Cu237      Cu238   2.366       .  S
C239       C1421   1.470       .  S
C240       C1531   1.472       .  S
C241       C1458   1.503       .  S
C242       C1491   1.502       .  S
C243        C244   1.542       .  S
C243        C249   1.519       .  S
C243        C247   1.543       .  S
C243       C1408   1.550       .  S
C244        H251   1.085       .  S
C244        C245   1.369       .  D
C245        C246   1.551       .  S
C245       C1388   1.513       .  S
C246        C250   1.550       .  S
C246        C248   1.555       .  S
C246        H252   1.096       .  S
C247        H253   1.084       .  S
C247        C248   1.380       .  D
C248        C601   1.533       .  S
C249        H254   1.088       .  S
C249        C250   1.351       .  D
C250       C1401   1.488       .  S
C255        C256   1.525       .  S
C255        C261   1.540       .  S
C255        C259   1.521       .  S
C255       C1368   1.541       .  S
C256        H263   1.087       .  S
C256        C257   1.355       .  D
C257        C258   1.564       .  S
C257       C1361   1.497       .  S
C258        C262   1.559       .  S
C258        C260   1.558       .  S
C258        H264   1.105       .  S
C259        H265   1.087       .  S
C259        C260   1.365       .  D
C260        C567   1.501       .  S
C261        H266   1.084       .  S
C261        C262   1.380       .  D
C262       C1378   1.514       .  S
C267        C268   1.532       .  S
C267        C273   1.547       .  S
C267        C271   1.525       .  S
C267       C1348   1.544       .  S
C268        H275   1.082       .  S
C268        C269   1.351       .  D
C269        C270   1.544       .  S
C269       C1338   1.477       .  S
C270        C274   1.546       .  S
C270        C272   1.540       .  S
C270        H276   1.101       .  S
C271        H277   1.086       .  S
C271        C272   1.370       .  D
C272        C620   1.476       .  S
C273        H278   1.084       .  S
C273        C274   1.381       .  D
C274       C1328   1.524       .  S
C279        C280   1.512       .  S
C279        C285   1.521       .  S
C279        C283   1.561       .  S
C279       C1308   1.556       .  S
C280        H287   1.085       .  S
C280        C281   1.357       .  D
C281        C282   1.565       .  S
C281       C1298   1.523       .  S
C282        C286   1.548       .  S
C282        C284   1.562       .  S
C282        H288   1.096       .  S
C283        H289   1.076       .  S
C283        C284   1.388       .  D
C284        C805   1.542       .  S
C285        H290   1.088       .  S
C285        C286   1.350       .  D
C286       C1318   1.498       .  S
O291       Cu299   2.007   1_545  S
O291        C301   1.278       .  A
O292       Cu299   1.993       .  S
O292        C302   1.278       .  A
O293       Cu299   1.980   1_545  S
O293        C303   1.270       .  A
O294       Cu299   1.986       .  S
O294        C304   1.272       .  A
O295       Cu300   2.088       .  S
O295        C304   1.288       .  A
O296       Cu300   2.066   1_545  S
O296        C303   1.284       .  A
O297       Cu300   2.013       .  S
O297        C302   1.275       .  A
O298       Cu300   2.026   1_545  S
O298        C301   1.278       .  A
Cu299      Cu300   2.354       .  S
C301       C1478   1.478       .  S
C302       C1311   1.488       .  S
C303       C1511   1.519       .  S
C304       C1391   1.494       .  S
O305       Cu313   1.963       .  S
O305        C315   1.269       .  A
O306       Cu313   1.945       .  S
O306        C316   1.264       .  A
O307       Cu313   2.023       .  S
O307        C317   1.281       .  A
O308       Cu313   2.008       .  S
O308        C318   1.277       .  A
O309       Cu314   2.027       .  S
O309        C318   1.278       .  A
O310       Cu314   1.996       .  S
O310        C317   1.272       .  A
O311       Cu314   2.079       .  S
O311        C316   1.286       .  A
O312       Cu314   2.086       .  S
O312        C315   1.289       .  A
Cu313      Cu314   2.361       .  S
C315       C1301   1.492       .  S
C316       C1451   1.518   1_565  S
C317       C1521   1.468   1_565  S
C318       C1331   1.480       .  S
O319       Cu327   2.021       .  S
O319        C329   1.280   1_565  A
O320       Cu327   2.017       .  S
O320        C330   1.280       .  A
O321       Cu327   1.983       .  S
O321        C331   1.275   1_565  A
O322       Cu327   1.981       .  S
O322        C332   1.272       .  A
O323       Cu328   2.054       .  S
O323        C332   1.284       .  A
O324       Cu328   2.057   1_545  S
O324        C331   1.283       .  A
O325       Cu328   2.027       .  S
O325        C330   1.277       .  A
O326       Cu328   2.016   1_545  S
O326        C329   1.276       .  A
Cu327      Cu328   2.369       .  S
C329       C1471   1.479       .  S
C330       C1381   1.479       .  S
C331       C1428   1.500       .  S
C332       C1351   1.484       .  S
O333       Cu341   2.007   1_545  S
O333        C343   1.278       .  A
O334       Cu341   1.994       .  S
O334        C344   1.275       .  A
O335       Cu341   1.956       .  S
O335        C345   1.270       .  A
O336       Cu341   1.958   1_545  S
O336        C346   1.272       .  A
O337       Cu342   2.072   1_545  S
O337        C346   1.285       .  A
O338       Cu342   2.068       .  S
O338        C345   1.285       .  A
O339       Cu342   2.019       .  S
O339        C344   1.278       .  A
O340       Cu342   2.003   1_545  S
O340        C343   1.274       .  A
Cu341      Cu342   2.369       .  S
C343       C1501   1.464       .  S
C344       C1371   1.469       .  S
C345       C1411   1.494       .  S
C346       C1441   1.494       .  S
O347       Cu355   1.971       .  S
O347        C357   1.273       .  A
O348       Cu355   1.956       .  S
O348        C358   1.270       .  A
O349       Cu355   1.999       .  S
O349        C359   1.277       .  A
O350       Cu355   1.993       .  S
O350        C360   1.275       .  A
O351       Cu356   2.070       .  S
O351        C360   1.285       .  A
O352       Cu356   2.033       .  S
O352        C359   1.279       .  A
O353       Cu356   2.024       .  S
O353        C358   1.278       .  A
O354       Cu356   2.060       .  S
O354        C357   1.284       .  A
Cu355      Cu356   2.358       .  S
C357       C1398   1.498       .  S
C358       C1341   1.489       .  S
C359       C1321   1.478       .  S
C360       C1358   1.511       .  S
C361        C362   1.526       .  S
C361        C367   1.543       .  S
C361        C365   1.526       .  S
C361       C1268   1.542       .  S
C362        H369   1.082       .  S
C362        C363   1.358       .  D
C363        C364   1.547       .  S
C363       C1281   1.479       .  S
C364        C368   1.549       .  S
C364        C366   1.537       .  S
C364        H370   1.098       .  S
C365        H371   1.087       .  S
C365        C366   1.361       .  D
C366        C596   1.472       .  S
C367        H372   1.085       .  S
C367        C368   1.384       .  D
C368       C1288   1.520       .  S
C373        C374   1.550       .  S
C373        C379   1.528       .  S
C373        C377   1.531       .  S
C373       C1261   1.551       .  S
C374        H381   1.078       .  S
C374        C375   1.376       .  D
C375        C376   1.547       .  S
C375       C1248   1.520       .  S
C376        C380   1.550       .  S
C376        C378   1.547       .  S
C376        H382   1.104       .  S
C377        H383   1.079       .  S
C377        C378   1.366       .  D
C378        C555   1.493       .  S
C379        H384   1.088       .  S
C379        C380   1.358       .  D
C380       C1238   1.486       .  S
C385        C386   1.545       .  S
C385        C391   1.528       .  S
C385        C389   1.525       .  S
C385       C1211   1.547       .  S
C386        H393   1.084       .  S
C386        C387   1.379       .  D
C387        C388   1.558       .  S
C387       C1228   1.519       .  S
C388        C392   1.558       .  S
C388        C390   1.554       .  S
C388        H394   1.106       .  S
C389        H395   1.086       .  S
C389        C390   1.371       .  D
C390        C603   1.499       .  S
C391        H396   1.087       .  S
C391        C392   1.352       .  D
C392       C1221   1.491       .  S
C397        C398   1.553       .  S
C397        C403   1.540       .  S
C397        C401   1.526       .  S
C397       C1198   1.555       .  S
C398        H405   1.081       .  S
C398        C399   1.379       .  D
C399        C400   1.554       .  S
C399       C1191   1.524       .  S
C400        C404   1.554       .  S
C400        C402   1.563       .  S
C400        H406   1.108       .  S
C401        H407   1.087       .  S
C401        C402   1.362       .  D
C402        C807   1.495       .  S
C403        H408   1.087       .  S
C403        C404   1.361       .  D
C404       C1178   1.499       .  S
O409       Cu417   2.077       .  S
O409        C419   1.286       .  A
O410       Cu417   2.062       .  S
O410        C420   1.284       .  A
O411       Cu417   2.006       .  S
O411        C421   1.275       .  A
O412       Cu417   2.017       .  S
O412        C422   1.277       .  A
O413       Cu418   2.021       .  S
O413        C422   1.279       .  A
O414       Cu418   2.022       .  S
O414        C421   1.279       .  A
O415       Cu418   1.942       .  S
O415        C420   1.269       .  A
O416       Cu418   1.964       .  S
O416        C419   1.271       .  A
Cu417      Cu418   2.362       .  S
C419       C1181   1.507   1_455  S
C420       C1171   1.487       .  S
C421       C1208   1.474   1_455  S
C422       C1158   1.479       .  S
O423       Cu431   2.007       .  S
O423        C433   1.274       .  A
O424       Cu431   2.012   1_655  S
O424        C434   1.276       .  A
O425       Cu431   2.077       .  S
O425        C435   1.287       .  A
O426       Cu431   2.067       .  S
O426        C436   1.287   1_455  A
O427       Cu432   1.992       .  S
O427        C436   1.273   1_455  A
O428       Cu432   2.000       .  S
O428        C435   1.275       .  A
O429       Cu432   2.015       .  S
O429        C434   1.279   1_455  A
O430       Cu432   2.015       .  S
O430        C433   1.280       .  A
Cu431      Cu432   2.370       .  S
C433       C1138   1.469       .  S
C434       C1271   1.481       .  S
C435       C1151   1.502       .  S
C436       C1188   1.499       .  S
O437       Cu445   2.053       .  S
O437        C447   1.283       .  A
O438       Cu445   2.058       .  S
O438        C448   1.284       .  A
O439       Cu445   2.005       .  S
O439        C449   1.276       .  A
O440       Cu445   2.020       .  S
O440        C450   1.277       .  A
O441       Cu446   2.017       .  S
O441        C450   1.279       .  A
O442       Cu446   2.016       .  S
O442        C449   1.279       .  A
O443       Cu446   1.998       .  S
O443        C448   1.275       .  A
O444       Cu446   1.986       .  S
O444        C447   1.275       .  A
Cu445      Cu446   2.371       .  S
C447       C1118   1.494       .  S
C448       C1231   1.489   1_455  S
C449       C1128   1.478       .  S
C450       C1258   1.481   1_455  S
O451       Cu459   2.030       .  S
O451        C461   1.279       .  A
O452       Cu459   2.023   1_655  S
O452        C462   1.279       .  A
O453       Cu459   2.028       .  S
O453        C463   1.279       .  A
O454       Cu459   2.026   1_655  S
O454        C464   1.279       .  A
O455       Cu460   2.000   1_655  S
O455        C464   1.276       .  A
O456       Cu460   2.000       .  S
O456        C463   1.277       .  A
O457       Cu460   1.994   1_655  S
O457        C462   1.276       .  A
O458       Cu460   1.995       .  S
O458        C461   1.276       .  A
Cu459      Cu460   2.374       .  S
C461       C1108   1.476       .  S
C462       C1251   1.480       .  S
C463       C1101   1.481       .  S
C464       C1291   1.474       .  S
O465       Cu473   2.056       .  S
O465        C475   1.284       .  A
O466       Cu473   2.024       .  S
O466        C476   1.277       .  A
O467       Cu473   2.036       .  S
O467        C477   1.280       .  A
O468       Cu473   2.046       .  S
O468        C478   1.281       .  A
O469       Cu474   1.997       .  S
O469        C478   1.277       .  A
O470       Cu474   1.982       .  S
O470        C477   1.276       .  A
O471       Cu474   1.976       .  S
O471        C476   1.270       .  A
O472       Cu474   1.979       .  S
O472        C475   1.272       .  A
Cu473      Cu474   2.360       .  S
C475       C1201   1.479       .  S
C476       C1241   1.505       .  S
C477       C1278   1.484       .  S
C478       C1218   1.499       .  S
C479        C480   1.523       .  S
C479        C485   1.552       .  S
C479        C483   1.527       .  S
C479       C1111   1.547       .  S
C480        H487   1.084       .  S
C480        C481   1.349       .  D
C481        C482   1.551       .  S
C481       C1091   1.482       .  S
C482        C486   1.556       .  S
C482        C484   1.552       .  S
C482        H488   1.106       .  S
C483        H489   1.087       .  S
C483        C484   1.367       .  D
C484        C584   1.495       .  S
C485        H490   1.086       .  S
C485        C486   1.383       .  D
C486       C1148   1.518       .  S
C491        C492   1.549       .  S
C491        C497   1.527       .  S
C491        C495   1.524       .  S
C491       C1078   1.544       .  S
C492        H499   1.083       .  S
C492        C493   1.375       .  D
C493        C494   1.541       .  S
C493       C1131   1.503       .  S
C494        C498   1.549       .  S
C494        C496   1.542       .  S
C494        H500   1.106       .  S
C495        H501   1.086       .  S
C495        C496   1.370       .  D
C496        C570   1.481       .  S
C497        H502   1.087       .  S
C497        C498   1.357       .  D
C498       C1168   1.480       .  S
C503        C504   1.531       .  S
C503        C509   1.551       .  S
C503        C507   1.518       .  S
C503       C1141   1.541       .  S
C504        H511   1.086       .  S
C504        C505   1.361       .  D
C505        C506   1.552       .  S
C505       C1068   1.483       .  S
C506        C510   1.545       .  S
C506        C508   1.548       .  S
C506        H512   1.104       .  S
C507        H513   1.086       .  S
C507        C508   1.364       .  D
C508        C615   1.484       .  S
C509        H514   1.085       .  S
C509        C510   1.380       .  D
C510       C1161   1.521       .  S
C515        C516   1.534       .  S
C515        C521   1.535       .  S
C515        C519   1.533       .  S
C515       C1098   1.543       .  S
C516        H523   1.081       .  S
C516        C517   1.355       .  D
C517        C518   1.541       .  S
C517       C1121   1.487       .  S
C518        C522   1.566       .  S
C518        C520   1.547       .  S
C518        H524   1.085       .  S
C519        H525   1.084       .  S
C519        C520   1.368       .  D
C520        C543   1.496       .  S
C521        H526   1.079       .  S
C521        C522   1.378       .  D
C522       C1058   1.537       .  S
O527       Cu535   2.021       .  S
O527        C537   1.277       .  A
O528       Cu535   2.038       .  S
O528        C538   1.281       .  A
O529       Cu535   2.035       .  S
O529        C539   1.281       .  A
O530       Cu535   2.038       .  S
O530        C540   1.280       .  A
O531       Cu536   1.977       .  S
O531        C540   1.275       .  A
O532       Cu536   1.998       .  S
O532        C539   1.275       .  A
O533       Cu536   1.982       .  S
O533        C538   1.274       .  A
O534       Cu536   1.983       .  S
O534        C537   1.276       .  A
Cu535      Cu536   2.368       .  S
C537       C1071   1.492       .  S
C538       C1061   1.473       .  S
C539       C1081   1.477       .  S
C540       C1088   1.486       .  S
C541        C542   1.534       .  S
C541        C547   1.531       .  S
C541        C545   1.534       .  S
C542        H549   1.079       .  S
C542        C543   1.371       .  D
C543        C544   1.550       .  S
C544        C548   1.550       .  S
C544        C546   1.547       .  S
C544        H550   1.098       .  S
C545        H551   1.080       .  S
C545        C546   1.366       .  D
C547        H552   1.082       .  S
C547        C548   1.369       .  D
C548        C630   1.503       .  S
C553        C554   1.539       .  S
C553        C559   1.533       .  S
C553        C557   1.532       .  S
C554        H561   1.086       .  S
C554        C555   1.369       .  D
C555        C556   1.543       .  S
C556        C560   1.547       .  S
C556        C558   1.560       .  S
C556        H562   1.108       .  S
C557        H563   1.081       .  S
C557        C558   1.357       .  D
C558        C654   1.497       .  S
C559        H564   1.082       .  S
C559        C560   1.366       .  D
C565        C566   1.532       .  S
C565        C571   1.525       .  S
C565        C569   1.518       .  S
C566        H573   1.087       .  S
C566        C567   1.367       .  D
C567        C568   1.558       .  S
C568        C572   1.563       .  S
C568        C570   1.557       .  S
C568        H574   1.110       .  S
C569        H575   1.083       .  S
C569        C570   1.370       .  D
C571        H576   1.086       .  S
C571        C572   1.364       .  D
C572        C666   1.506       .  S
C577        C578   1.538       .  S
C577        C583   1.540       .  S
C577        C581   1.528       .  S
C577        C642   1.543       .  S
C578        H585   1.086       .  S
C578        C579   1.372       .  D
C579        C580   1.553       .  S
C580        C584   1.550       .  S
C580        C582   1.555       .  S
C580        H586   1.110       .  S
C581        H587   1.087       .  S
C581        C582   1.368       .  D
C583        H588   1.081       .  S
C583        C584   1.368       .  D
C589        C590   1.532       .  S
C589        C595   1.531       .  S
C589        C593   1.526       .  S
C589        C730   1.522       .  S
C590        H597   1.087       .  S
C590        C591   1.364       .  D
C591        C592   1.540       .  S
C592        C596   1.544       .  S
C592        C594   1.551       .  S
C592        H598   1.111       .  S
C593        H599   1.088       .  S
C593        C594   1.364       .  D
C595        H600   1.084       .  S
C595        C596   1.374       .  D
C601        C602   1.533       .  S
C601        C607   1.529       .  S
C601        C605   1.534       .  S
C602        H609   1.080       .  S
C602        C603   1.363       .  D
C603        C604   1.551       .  S
C604        C608   1.554       .  S
C604        C606   1.555       .  S
C604        H610   1.106       .  S
C605        H611   1.082       .  S
C605        C606   1.368       .  D
C606        C678   1.501       .  S
C607        H612   1.081       .  S
C607        C608   1.374       .  D
C613        C614   1.525       .  S
C613        C619   1.530       .  S
C613        C617   1.537       .  S
C613        C704   1.521       .  S
C614        H621   1.086       .  S
C614        C615   1.366       .  D
C615        C616   1.544       .  S
C616        C620   1.546       .  S
C616        C618   1.551       .  S
C616        H622   1.111       .  S
C617        H623   1.084       .  S
C617        C618   1.371       .  D
C619        H624   1.087       .  S
C619        C620   1.359       .  D
C625        C626   1.534       .  S
C625        C631   1.541       .  S
C625        C629   1.535       .  S
C625       C1038   1.553       .  S
C626        H633   1.078       .  S
C626        C627   1.351       .  D
C627        C628   1.541       .  S
C627       C1028   1.486       .  S
C628        C632   1.539       .  S
C628        C630   1.561       .  S
C628        H634   1.098       .  S
C629        H635   1.081       .  S
C629        C630   1.378       .  D
C631        H636   1.086       .  S
C631        C632   1.373       .  D
C632       C1051   1.511       .  S
C637        C638   1.540       .  S
C637        C643   1.525       .  S
C637        C641   1.551       .  S
C637        C998   1.562       .  S
C638        H645   1.079       .  S
C638        C639   1.371       .  D
C639        C640   1.545       .  S
C639       C1021   1.514       .  S
C640        C644   1.544       .  S
C640        C642   1.554       .  S
C640        H646   1.091       .  S
C641        H647   1.085       .  S
C641        C642   1.383       .  D
C643        H648   1.087       .  S
C643        C644   1.355       .  D
C644       C1008   1.488       .  S
C649        C650   1.536       .  S
C649        C655   1.539       .  S
C649        C653   1.524       .  S
C649        C978   1.545       .  S
C650        H657   1.088       .  S
C650        C651   1.357       .  D
C651        C652   1.548       .  S
C651        C968   1.492       .  S
C652        C656   1.553       .  S
C652        C654   1.564       .  S
C652        H658   1.106       .  S
C653        H659   1.078       .  S
C653        C654   1.357       .  D
C655        H660   1.078       .  S
C655        C656   1.374       .  D
C656        C991   1.504       .  S
C661        C662   1.558       .  S
C661        C667   1.523       .  S
C661        C665   1.527       .  S
C661        C958   1.562       .  S
C662        H669   1.080       .  S
C662        C663   1.376       .  D
C663        C664   1.542       .  S
C663        C941   1.516       .  S
C664        C668   1.564       .  S
C664        C666   1.563       .  S
C664        H670   1.108       .  S
C665        H671   1.087       .  S
C665        C666   1.375       .  D
C667        H672   1.088       .  S
C667        C668   1.356       .  D
C668        C951   1.493       .  S
C673        C674   1.535       .  S
C673        C679   1.536       .  S
C673        C677   1.537       .  S
C673        C928   1.557       .  S
C674        H681   1.087       .  S
C674        C675   1.358       .  D
C675        C676   1.537       .  S
C675        C908   1.490       .  S
C676        C680   1.552       .  S
C676        C678   1.554       .  S
C676        H682   1.094       .  S
C677        H683   1.075       .  S
C677        C678   1.368       .  D
C679        H684   1.075       .  S
C679        C680   1.373       .  D
C680        C918   1.522       .  S
O685       Cu693   1.988       .  S
O685        C695   1.274   1_455  A
O686       Cu693   2.000   1_545  S
O686        C696   1.278       .  A
O687       Cu693   1.973       .  S
O687        C697   1.272       .  A
O688       Cu693   1.986   1_655  S
O688        C698   1.274   1_565  A
O689       Cu694   2.036   1_655  S
O689        C698   1.280   1_565  A
O690       Cu694   2.042       .  S
O690        C697   1.280       .  A
O691       Cu694   2.058       .  S
O691        C696   1.281   1_565  A
O692       Cu694   2.046   1_655  S
O692        C695   1.282       .  A
Cu693      Cu694   2.360       .  S
C695        C911   1.504       .  S
C696       C1041   1.487       .  S
C697        C948   1.507       .  S
C698        C981   1.473       .  S
C699        C700   1.558       .  S
C699        C705   1.514       .  S
C699        C703   1.529       .  S
C699        C891   1.551       .  S
C700        H707   1.081       .  S
C700        C701   1.380       .  D
C701        C702   1.536       .  S
C701        C878   1.506       .  S
C702        C706   1.544       .  S
C702        C704   1.550       .  S
C702        H708   1.104       .  S
C703        H709   1.086       .  S
C703        C704   1.372       .  D
C705        H710   1.088       .  S
C705        C706   1.353       .  D
C706        C898   1.474       .  S
O711       Cu719   1.973   1_554  S
O711        C721   1.274   1_565  A
O712       Cu719   1.988       .  S
O712        C722   1.275       .  A
O713       Cu719   1.994   1_554  S
O713        C723   1.275       .  A
O714       Cu719   2.002       .  S
O714        C724   1.279       .  A
O715       Cu720   2.040       .  S
O715        C724   1.280       .  A
O716       Cu720   2.056   1_554  S
O716        C723   1.283       .  A
O717       Cu720   2.036       .  S
O717        C722   1.281       .  A
O718       Cu720   2.039   1_554  S
O718        C721   1.279   1_565  A
Cu719      Cu720   2.367       .  S
C721       C1031   1.497       .  S
C722        C881   1.477       .  S
C723        C938   1.486       .  S
C724       C1001   1.491   1_565  S
C725        C726   1.545       .  S
C725        C731   1.528       .  S
C725        C729   1.517       .  S
C725        C861   1.545       .  S
C726        H733   1.085       .  S
C726        C727   1.383       .  D
C727        C728   1.549       .  S
C727        C848   1.514       .  S
C728        C732   1.545       .  S
C728        C730   1.549       .  S
C728        H734   1.098       .  S
C729        H735   1.087       .  S
C729        C730   1.370       .  D
C731        H736   1.086       .  S
C731        C732   1.354       .  D
C732        C871   1.481       .  S
O737       Cu745   1.932       .  S
O737        C747   1.266   1_455  A
O738       Cu745   1.931       .  S
O738        C748   1.265       .  A
O739       Cu745   1.999       .  S
O739        C749   1.276   1_556  A
O740       Cu745   2.038       .  S
O740        C750   1.282   1_455  A
O741       Cu746   1.987       .  S
O741        C750   1.271   1_455  A
O742       Cu746   2.027       .  S
O742        C749   1.278   1_556  A
O743       Cu746   2.090       .  S
O743        C748   1.289       .  A
O744       Cu746   2.088   1_655  S
O744        C747   1.288       .  A
Cu745      Cu746   2.364       .  S
C747        C971   1.498   1_556  S
C748       C1011   1.498       .  S
C749       C1048   1.475       .  S
C750        C851   1.473       .  S
C751        C752   1.541       .  S
C751        C757   1.544       .  S
C751        C755   1.538       .  S
C751        C828   1.555       .  S
C752        H759   1.086       .  S
C752        C753   1.368       .  D
C753        C754   1.552       .  S
C753        C821   1.507       .  S
C754        C758   1.540       .  S
C754        C756   1.560       .  S
C754        H760   1.107       .  S
C755        H761   1.085       .  S
C755        C756   1.375       .  D
C756        C812   1.504       .  S
C757        H762   1.081       .  S
C757        C758   1.361       .  D
C758        C838   1.503       .  S
O763       Cu771   2.026   1_554  S
O763        C773   1.279       .  A
O764       Cu771   2.010       .  S
O764        C774   1.278       .  A
O765       Cu771   1.951   1_655  S
O765        C775   1.272       .  A
O766       Cu771   1.939       .  S
O766        C776   1.268       .  A
O767       Cu772   2.039       .  S
O767        C776   1.282       .  A
O768       Cu772   2.049       .  S
O768        C775   1.282   1_455  A
O769       Cu772   2.031       .  S
O769        C774   1.279       .  A
O770       Cu772   2.035   1_554  S
O770        C773   1.279       .  A
Cu771      Cu772   2.369       .  S
C773        C961   1.488       .  S
C774        C831   1.480   1_455  S
C775        C931   1.478   1_556  S
C776        C901   1.476       .  S
O777       Cu785   1.991       .  S
O777        C787   1.274   1_565  A
O778       Cu785   1.988       .  S
O778        C788   1.275       .  A
O779       Cu785   1.998       .  S
O779        C789   1.277       .  A
O780       Cu785   2.017       .  S
O780        C790   1.279   1_556  A
O781       Cu786   2.005       .  S
O781        C790   1.276   1_556  A
O782       Cu786   2.013       .  S
O782        C789   1.276       .  A
O783       Cu786   2.063       .  S
O783        C788   1.284       .  A
O784       Cu786   2.055       .  S
O784        C787   1.284   1_565  A
Cu785      Cu786   2.369       .  S
C787        C988   1.490   1_556  S
C788        C818   1.505       .  S
C789        C858   1.467   1_565  S
C790        C921   1.479       .  S
O791       Cu799   2.074       .  S
O791        C801   1.285   1_465  A
O792       Cu799   2.078       .  S
O792        C802   1.288       .  A
O793       Cu799   2.038   1_655  S
O793        C803   1.280       .  A
O794       Cu799   1.997       .  S
O794        C804   1.273       .  A
O795       Cu800   2.031       .  S
O795        C804   1.282       .  A
O796       Cu800   2.009       .  S
O796        C803   1.278   1_455  A
O797       Cu800   1.941       .  S
O797        C802   1.268       .  A
O798       Cu800   1.923       .  S
O798        C801   1.265   1_465  A
Cu799      Cu800   2.362       .  S
C801        C868   1.492       .  S
C802        C888   1.487       .  S
C803        C841   1.495       .  S
C804       C1018   1.474   1_565  S
C805        C806   1.542       .  S
C805        C811   1.537       .  S
C805        C809   1.540       .  S
C806        H813   1.086       .  S
C806        C807   1.372       .  D
C807        C808   1.549       .  S
C808        C812   1.556       .  S
C808        C810   1.558       .  S
C808        H814   1.110       .  S
C809        H815   1.079       .  S
C809        C810   1.359       .  D
C811        H816   1.085       .  S
C811        C812   1.371       .  D
C817        C818   1.418       .  A
C817        C822   1.422       .  A
C817       Br824   1.927       .  S
C818        C819   1.417       .  A
C819        C820   1.405       .  A
C819       Br826   1.939       .  S
C820        C821   1.420       .  A
C820       Br825   1.939       .  S
C821        C822   1.416       .  A
C822       Br823   1.929       .  S
C827        C828   1.418       .  A
C827        C832   1.410       .  A
C827       Br834   1.929       .  S
C828        C829   1.412       .  A
C829        C830   1.412       .  A
C829       Br836   1.907       .  S
C830        C831   1.407       .  A
C830       Br835   1.927       .  S
C831        C832   1.407       .  A
C832       Br833   1.927   1_655  S
C837        C838   1.413       .  A
C837        C842   1.413       .  A
C837       Br844   1.919       .  S
C838        C839   1.414       .  A
C839        C840   1.412       .  A
C839       Br846   1.933       .  S
C840        C841   1.414       .  A
C840       Br845   1.928       .  S
C841        C842   1.414       .  A
C842       Br843   1.934       .  S
C847        C848   1.415       .  A
C847        C852   1.406       .  A
C847       Br854   1.926       .  S
C848        C849   1.428       .  A
C849        C850   1.412       .  A
C849       Br856   1.924       .  S
C850        C851   1.402       .  A
C850       Br855   1.932   1_655  S
C851        C852   1.404       .  A
C852       Br853   1.928       .  S
C857        C858   1.405       .  A
C857        C862   1.411       .  A
C857       Br864   1.930       .  S
C858        C859   1.399       .  A
C859        C860   1.402       .  A
C859       Br866   1.928   1_545  S
C860        C861   1.424       .  A
C860       Br865   1.935       .  S
C861        C862   1.420       .  A
C862       Br863   1.921       .  S
C867        C868   1.420       .  A
C867        C872   1.391       .  A
C867       Br874   1.945   1_655  S
C868        C869   1.414       .  A
C869        C870   1.417       .  A
C869       Br876   1.924       .  S
C870        C871   1.409       .  A
C870       Br875   1.920       .  S
C871        C872   1.410       .  A
C872       Br873   1.935       .  S
C877        C878   1.416       .  A
C877        C882   1.408       .  A
C877       Br884   1.925       .  S
C878        C879   1.409       .  A
C879        C880   1.409       .  A
C879       Br886   1.915       .  S
C880        C881   1.408       .  A
C880       Br885   1.928       .  S
C881        C882   1.408       .  A
C882       Br883   1.928       .  S
C887        C888   1.403       .  A
C887        C892   1.416       .  A
C887       Br894   1.930       .  S
C888        C889   1.414       .  A
C889        C890   1.403       .  A
C889       Br896   1.933       .  S
C890        C891   1.415       .  A
C890       Br895   1.932       .  S
C891        C892   1.431       .  A
C892       Br893   1.923       .  S
C897        C898   1.406       .  A
C897        C902   1.410       .  A
C897       Br904   1.921       .  S
C898        C899   1.410       .  A
C899        C900   1.394       .  A
C899       Br906   1.937       .  S
C900        C901   1.418       .  A
C900       Br905   1.944       .  S
C901        C902   1.412       .  A
C902       Br903   1.929       .  S
C907        C908   1.408       .  A
C907        C912   1.406       .  A
C907       Br914   1.929       .  S
C908        C909   1.406       .  A
C909        C910   1.416       .  A
C909       Br916   1.930       .  S
C910        C911   1.423       .  A
C910       Br915   1.931       .  S
C911        C912   1.423       .  A
C912       Br913   1.940       .  S
C917        C918   1.423       .  A
C917        C922   1.406       .  A
C917       Br924   1.936       .  S
C918        C919   1.428       .  A
C919        C920   1.414       .  A
C919       Br926   1.927       .  S
C920        C921   1.404       .  A
C920       Br925   1.935       .  S
C921        C922   1.407       .  A
C922       Br923   1.934   1_554  S
C927        C928   1.438       .  A
C927        C932   1.397       .  A
C927       Br934   1.942       .  S
C928        C929   1.441       .  A
C929        C930   1.418       .  A
C929       Br936   1.926       .  S
C930        C931   1.398       .  A
C930       Br935   1.932       .  S
C931        C932   1.398       .  A
C932       Br933   1.940   1_554  S
C937        C938   1.406       .  A
C937        C942   1.413       .  A
C937       Br944   1.927       .  S
C938        C939   1.408       .  A
C939        C940   1.413       .  A
C939       Br946   1.932       .  S
C940        C941   1.419       .  A
C940       Br945   1.917       .  S
C941        C942   1.416       .  A
C942       Br943   1.919       .  S
C947        C948   1.425       .  A
C947        C952   1.418       .  A
C947       Br954   1.930       .  S
C948        C949   1.421       .  A
C949        C950   1.399       .  A
C949       Br956   1.946       .  S
C950        C951   1.417       .  A
C950       Br955   1.939       .  S
C951        C952   1.407       .  A
C952       Br953   1.930       .  S
C957        C958   1.428       .  A
C957        C962   1.414       .  A
C957       Br964   1.930       .  S
C958        C959   1.429       .  A
C959        C960   1.414       .  A
C959       Br966   1.931       .  S
C960        C961   1.402       .  A
C960       Br965   1.928       .  S
C961        C962   1.406       .  A
C962       Br963   1.929   1_554  S
C967        C968   1.409       .  A
C967        C972   1.397       .  A
C967       Br974   1.939       .  S
C968        C969   1.413       .  A
C969        C970   1.421       .  A
C969       Br976   1.919       .  S
C970        C971   1.414       .  A
C970       Br975   1.925       .  S
C971        C972   1.421       .  A
C972       Br973   1.942   1_554  S
C977        C978   1.425       .  A
C977        C982   1.402       .  A
C977       Br984   1.934       .  S
C978        C979   1.425       .  A
C979        C980   1.413       .  A
C979       Br986   1.926       .  S
C980        C981   1.405       .  A
C980       Br985   1.930   1_545  S
C981        C982   1.397       .  A
C982       Br983   1.917       .  S
C987        C988   1.418       .  A
C987        C992   1.409       .  A
C987       Br994   1.932   1_554  S
C988        C989   1.412       .  A
C989        C990   1.413       .  A
C989       Br996   1.927   1_545  S
C990        C991   1.410       .  A
C990       Br995   1.921       .  S
C991        C992   1.407       .  A
C992       Br993   1.924       .  S
C997        C998   1.431       .  A
C997       C1002   1.424       .  A
C997      Br1004   1.927       .  S
C998        C999   1.431       .  A
C999       C1000   1.399   1_545  A
C999      Br1006   1.933       .  S
C1000      C1001   1.398   1_565  A
C1000     Br1005   1.933       .  S
C1001      C1002   1.411       .  A
C1002     Br1003   1.932       .  S
C1007      C1008   1.406       .  A
C1007      C1012   1.400       .  A
C1007     Br1014   1.933       .  S
C1008      C1009   1.409       .  A
C1009      C1010   1.419       .  A
C1009     Br1016   1.919       .  S
C1010      C1011   1.415       .  A
C1010     Br1015   1.925       .  S
C1011      C1012   1.424       .  A
C1012     Br1013   1.943       .  S
C1017      C1018   1.401       .  A
C1017      C1022   1.409       .  A
C1017     Br1024   1.926       .  S
C1018      C1019   1.401       .  A
C1019      C1020   1.407       .  A
C1019     Br1026   1.930   1_545  S
C1020      C1021   1.421       .  A
C1020     Br1025   1.921       .  S
C1021      C1022   1.426       .  A
C1022     Br1023   1.927       .  S
C1027      C1028   1.413       .  A
C1027      C1032   1.398       .  A
C1027     Br1034   1.933       .  S
C1028      C1029   1.405       .  A
C1029      C1030   1.417       .  A
C1029     Br1036   1.923       .  S
C1030      C1031   1.421       .  A
C1030     Br1035   1.927       .  S
C1031      C1032   1.417       .  A
C1032     Br1033   1.942   1_554  S
C1037      C1038   1.428       .  A
C1037      C1042   1.390       .  A
C1037     Br1044   1.937       .  S
C1038      C1039   1.432       .  A
C1039      C1040   1.423       .  A
C1039     Br1046   1.929       .  S
C1040      C1041   1.405       .  A
C1040     Br1045   1.917       .  S
C1041      C1042   1.392       .  A
C1042     Br1043   1.917   1_545  S
C1047      C1048   1.404       .  A
C1047      C1052   1.410       .  A
C1047     Br1054   1.934   1_554  S
C1048      C1049   1.404       .  A
C1049      C1050   1.409       .  A
C1049     Br1056   1.928       .  S
C1050      C1051   1.418       .  A
C1050     Br1055   1.928       .  S
C1051      C1052   1.425       .  A
C1052     Br1053   1.927       .  S
C1057      C1058   1.430       .  A
C1057      C1062   1.405       .  A
C1057     Br1064   1.936       .  S
C1058      C1059   1.433       .  A
C1059      C1060   1.416       .  A
C1059     Br1066   1.924       .  S
C1060      C1061   1.399       .  A
C1060     Br1065   1.929       .  S
C1061      C1062   1.399       .  A
C1062     Br1063   1.931       .  S
C1067      C1068   1.411       .  A
C1067      C1072   1.396       .  A
C1067     Br1074   1.931       .  S
C1068      C1069   1.407       .  A
C1069      C1070   1.415       .  A
C1069     Br1076   1.932       .  S
C1070      C1071   1.423       .  A
C1070     Br1075   1.931       .  S
C1071      C1072   1.412       .  A
C1072     Br1073   1.938       .  S
C1077      C1078   1.420       .  A
C1077      C1082   1.410       .  A
C1077     Br1084   1.934       .  S
C1078      C1079   1.414       .  A
C1079      C1080   1.406       .  A
C1079     Br1086   1.930       .  S
C1080      C1081   1.407       .  A
C1080     Br1085   1.921       .  S
C1081      C1082   1.409       .  A
C1082     Br1083   1.930       .  S
C1087      C1088   1.415       .  A
C1087      C1092   1.415       .  A
C1087     Br1094   1.929       .  S
C1088      C1089   1.412       .  A
C1089      C1090   1.398       .  A
C1089     Br1096   1.938       .  S
C1090      C1091   1.412       .  A
C1090     Br1095   1.933       .  S
C1091      C1092   1.409       .  A
C1092     Br1093   1.925       .  S
C1097      C1098   1.414       .  A
C1097      C1102   1.403       .  A
C1097     Br1104   1.933       .  S
C1098      C1099   1.421       .  A
C1099      C1100   1.413       .  A
C1099     Br1106   1.932       .  S
C1100      C1101   1.411       .  A
C1100     Br1105   1.930       .  S
C1101      C1102   1.410       .  A
C1102     Br1103   1.930       .  S
C1107      C1108   1.404       .  A
C1107      C1112   1.400       .  A
C1107     Br1114   1.930       .  S
C1108      C1109   1.408       .  A
C1109      C1110   1.415       .  A
C1109     Br1116   1.926       .  S
C1110      C1111   1.419       .  A
C1110     Br1115   1.921       .  S
C1111      C1112   1.423       .  A
C1112     Br1113   1.938       .  S
C1117      C1118   1.414       .  A
C1117      C1122   1.413       .  A
C1117     Br1124   1.928       .  S
C1118      C1119   1.418       .  A
C1119      C1120   1.409       .  A
C1119     Br1126   1.934       .  S
C1120      C1121   1.405       .  A
C1120     Br1125   1.927       .  S
C1121      C1122   1.411       .  A
C1122     Br1123   1.929       .  S
C1127      C1128   1.413       .  A
C1127      C1132   1.408       .  A
C1127     Br1134   1.931       .  S
C1128      C1129   1.409       .  A
C1129      C1130   1.408       .  A
C1129     Br1136   1.931       .  S
C1130      C1131   1.415       .  A
C1130     Br1135   1.925       .  S
C1131      C1132   1.412       .  A
C1132     Br1133   1.930       .  S
C1137      C1138   1.398       .  A
C1137      C1142   1.405       .  A
C1137     Br1144   1.925       .  S
C1138      C1139   1.398       .  A
C1139      C1140   1.408       .  A
C1139     Br1146   1.927       .  S
C1140      C1141   1.424       .  A
C1140     Br1145   1.924       .  S
C1141      C1142   1.420       .  A
C1142     Br1143   1.921       .  S
C1147      C1148   1.414       .  A
C1147      C1152   1.409       .  A
C1147     Br1154   1.927       .  S
C1148      C1149   1.416       .  A
C1149      C1150   1.421       .  A
C1149     Br1156   1.928       .  S
C1150      C1151   1.414       .  A
C1150     Br1155   1.916       .  S
C1151      C1152   1.415       .  A
C1152     Br1153   1.933       .  S
C1157      C1158   1.410       .  A
C1157      C1162   1.418       .  A
C1157     Br1164   1.930       .  S
C1158      C1159   1.401       .  A
C1159      C1160   1.403       .  A
C1159     Br1166   1.932       .  S
C1160      C1161   1.412       .  A
C1160     Br1165   1.904       .  S
C1161      C1162   1.424       .  A
C1162     Br1163   1.927       .  S
C1167      C1168   1.410       .  A
C1167      C1172   1.394       .  A
C1167     Br1174   1.935       .  S
C1168      C1169   1.408       .  A
C1169      C1170   1.416       .  A
C1169     Br1176   1.923       .  S
C1170      C1171   1.415       .  A
C1170     Br1175   1.925       .  S
C1171      C1172   1.417       .  A
C1172     Br1173   1.942       .  S
C1177      C1178   1.414       .  A
C1177      C1182   1.404       .  A
C1177     Br1184   1.937       .  S
C1178      C1179   1.411       .  A
C1179      C1180   1.422       .  A
C1179     Br1186   1.927       .  S
C1180      C1181   1.421       .  A
C1180     Br1185   1.927       .  S
C1181      C1182   1.420       .  A
C1182     Br1183   1.941   1_655  S
C1187      C1188   1.420       .  A
C1187      C1192   1.415       .  A
C1187     Br1194   1.930   1_655  S
C1188      C1189   1.410       .  A
C1189      C1190   1.413       .  A
C1189     Br1196   1.932       .  S
C1190      C1191   1.410       .  A
C1190     Br1195   1.895       .  S
C1191      C1192   1.412       .  A
C1192     Br1193   1.921       .  S
C1197      C1198   1.417       .  A
C1197      C1202   1.412       .  A
C1197     Br1204   1.927       .  S
C1198      C1199   1.424       .  A
C1199      C1200   1.410       .  A
C1199     Br1206   1.919       .  S
C1200      C1201   1.401       .  A
C1200     Br1205   1.929       .  S
C1201      C1202   1.409       .  A
C1202     Br1203   1.926       .  S
C1207      C1208   1.403       .  A
C1207      C1212   1.406       .  A
C1207     Br1214   1.929       .  S
C1208      C1209   1.409       .  A
C1209      C1210   1.411       .  A
C1209     Br1216   1.927   1_655  S
C1210      C1211   1.415       .  A
C1210     Br1215   1.925       .  S
C1211      C1212   1.422       .  A
C1212     Br1213   1.933       .  S
C1217      C1218   1.418       .  A
C1217      C1222   1.421       .  A
C1217     Br1224   1.927       .  S
C1218      C1219   1.416       .  A
C1219      C1220   1.401       .  A
C1219     Br1226   1.934       .  S
C1220      C1221   1.413       .  A
C1220     Br1225   1.937       .  S
C1221      C1222   1.411       .  A
C1222     Br1223   1.929       .  S
C1227      C1228   1.422       .  A
C1227      C1232   1.415       .  A
C1227     Br1234   1.930       .  S
C1228      C1229   1.421       .  A
C1229      C1230   1.413       .  A
C1229     Br1236   1.927       .  S
C1230      C1231   1.409       .  A
C1230     Br1235   1.930       .  S
C1231      C1232   1.408       .  A
C1232     Br1233   1.929   1_655  S
C1237      C1238   1.400       .  A
C1237      C1242   1.413       .  A
C1237     Br1244   1.925       .  S
C1238      C1239   1.410       .  A
C1239      C1240   1.402       .  A
C1239     Br1246   1.943       .  S
C1240      C1241   1.431       .  A
C1240     Br1245   1.946       .  S
C1241      C1242   1.429       .  A
C1242     Br1243   1.935       .  S
C1247      C1248   1.425       .  A
C1247      C1252   1.409       .  A
C1247     Br1254   1.922       .  S
C1248      C1249   1.427       .  A
C1249      C1250   1.411       .  A
C1249     Br1256   1.924       .  S
C1250      C1251   1.405       .  A
C1250     Br1255   1.933       .  S
C1251      C1252   1.405       .  A
C1252     Br1253   1.938   1_655  S
C1257      C1258   1.408   1_455  A
C1257      C1262   1.408   1_455  A
C1257     Br1264   1.929       .  S
C1258      C1259   1.408       .  A
C1259      C1260   1.413       .  A
C1259     Br1266   1.929       .  S
C1260      C1261   1.425       .  A
C1260     Br1265   1.931       .  S
C1261      C1262   1.416       .  A
C1262     Br1263   1.927   1_655  S
C1267      C1268   1.420       .  A
C1267      C1272   1.409       .  A
C1267     Br1274   1.932       .  S
C1268      C1269   1.419       .  A
C1269      C1270   1.407       .  A
C1269     Br1276   1.935       .  S
C1270      C1271   1.408       .  A
C1270     Br1275   1.931       .  S
C1271      C1272   1.409       .  A
C1272     Br1273   1.922       .  S
C1277      C1278   1.411       .  A
C1277      C1282   1.401       .  A
C1277     Br1284   1.934       .  S
C1278      C1279   1.412       .  A
C1279      C1280   1.413       .  A
C1279     Br1286   1.926       .  S
C1280      C1281   1.410       .  A
C1280     Br1285   1.928       .  S
C1281      C1282   1.411       .  A
C1282     Br1283   1.928       .  S
C1287      C1288   1.431       .  A
C1287      C1292   1.417       .  A
C1287     Br1294   1.927       .  S
C1288      C1289   1.412       .  A
C1289      C1290   1.397       .  A
C1289     Br1296   1.922       .  S
C1290      C1291   1.401       .  A
C1290     Br1295   1.920   1_655  S
C1291      C1292   1.406       .  A
C1292     Br1293   1.930       .  S
C1297      C1298   1.405       .  A
C1297      C1302   1.429       .  A
C1297     Br1304   1.904       .  S
C1298      C1299   1.403       .  A
C1299      C1300   1.387       .  A
C1299     Br1306   1.933       .  S
C1300      C1301   1.416       .  A
C1300     Br1305   1.929       .  S
C1301      C1302   1.419       .  A
C1302     Br1303   1.920       .  S
C1307      C1308   1.423       .  A
C1307      C1312   1.420       .  A
C1307     Br1314   1.924       .  S
C1308      C1309   1.444       .  A
C1309      C1310   1.398       .  A
C1309     Br1316   1.959       .  S
C1310      C1311   1.404       .  A
C1310     Br1315   1.949       .  S
C1311      C1312   1.416       .  A
C1312     Br1313   1.934       .  S
C1317      C1318   1.409       .  A
C1317      C1322   1.406       .  A
C1317     Br1324   1.919       .  S
C1318      C1319   1.423       .  A
C1319      C1320   1.410       .  A
C1319     Br1326   1.928       .  S
C1320      C1321   1.402       .  A
C1320     Br1325   1.929       .  S
C1321      C1322   1.405       .  A
C1322     Br1323   1.922       .  S
C1327      C1328   1.423       .  A
C1327      C1332   1.410       .  A
C1327     Br1334   1.933       .  S
C1328      C1329   1.433       .  A
C1329      C1330   1.414       .  A
C1329     Br1336   1.930       .  S
C1330      C1331   1.403       .  A
C1330     Br1335   1.937       .  S
C1331      C1332   1.404       .  A
C1332     Br1333   1.931       .  S
C1337      C1338   1.406       .  A
C1337      C1342   1.413       .  A
C1337     Br1344   1.933       .  S
C1338      C1339   1.413       .  A
C1339      C1340   1.390       .  A
C1339     Br1346   1.936       .  S
C1340      C1341   1.419       .  A
C1340     Br1345   1.947       .  S
C1341      C1342   1.422       .  A
C1342     Br1343   1.931       .  S
C1347      C1348   1.405       .  A
C1347      C1352   1.391       .  A
C1347     Br1354   1.933       .  S
C1348      C1349   1.419       .  A
C1349      C1350   1.420       .  A
C1349     Br1356   1.927       .  S
C1350      C1351   1.415       .  A
C1350     Br1355   1.925       .  S
C1351      C1352   1.412       .  A
C1352     Br1353   1.930       .  S
C1357      C1358   1.420       .  A
C1357      C1362   1.421       .  A
C1357     Br1364   1.926       .  S
C1358      C1359   1.423       .  A
C1359      C1360   1.410       .  A
C1359     Br1366   1.938       .  S
C1360      C1361   1.413       .  A
C1360     Br1365   1.935       .  S
C1361      C1362   1.408       .  A
C1362     Br1363   1.925       .  S
C1367      C1368   1.426       .  A
C1367      C1372   1.407       .  A
C1367     Br1374   1.937       .  S
C1368      C1369   1.414       .  A
C1369      C1370   1.404       .  A
C1369     Br1376   1.925       .  S
C1370      C1371   1.404       .  A
C1370     Br1375   1.924       .  S
C1371      C1372   1.403       .  A
C1372     Br1373   1.929       .  S
C1377      C1378   1.425       .  A
C1377      C1382   1.411       .  A
C1377     Br1384   1.926       .  S
C1378      C1379   1.421       .  A
C1379      C1380   1.407       .  A
C1379     Br1386   1.920       .  S
C1380      C1381   1.398       .  A
C1380     Br1385   1.924       .  S
C1381      C1382   1.400       .  A
C1382     Br1383   1.923       .  S
C1387      C1388   1.412       .  A
C1387      C1392   1.413       .  A
C1387     Br1394   1.927       .  S
C1388      C1389   1.416       .  A
C1389      C1390   1.414       .  A
C1389     Br1396   1.930       .  S
C1390      C1391   1.407       .  A
C1390     Br1395   1.914       .  S
C1391      C1392   1.413       .  A
C1392     Br1393   1.921       .  S
C1397      C1398   1.416       .  A
C1397      C1402   1.419       .  A
C1397     Br1404   1.927       .  S
C1398      C1399   1.418       .  A
C1399      C1400   1.402       .  A
C1399     Br1406   1.939       .  S
C1400      C1401   1.408       .  A
C1400     Br1405   1.929       .  S
C1401      C1402   1.413       .  A
C1402     Br1403   1.927       .  S
C1407      C1408   1.428       .  A
C1407      C1412   1.400       .  A
C1407     Br1414   1.946       .  S
C1408      C1409   1.429       .  A
C1409      C1410   1.420       .  A
C1409     Br1416   1.932       .  S
C1410      C1411   1.410       .  A
C1410     Br1415   1.931       .  S
C1411      C1412   1.414       .  A
C1412     Br1413   1.947       .  S
C1417      C1418   1.420       .  A
C1417      C1422   1.410       .  A
C1417     Br1424   1.927       .  S
C1418      C1419   1.412       .  A
C1419      C1420   1.405       .  A
C1419     Br1426   1.921       .  S
C1420      C1421   1.405       .  A
C1420     Br1425   1.927       .  S
C1421      C1422   1.404       .  A
C1422     Br1423   1.929       .  S
C1427      C1428   1.407       .  A
C1427      C1432   1.404       .  A
C1427     Br1434   1.944       .  S
C1428      C1429   1.409       .  A
C1429      C1430   1.425       .  A
C1429     Br1436   1.932       .  S
C1430      C1431   1.437       .  A
C1430     Br1435   1.934       .  S
C1431      C1432   1.432       .  A
C1432     Br1433   1.937       .  S
C1437      C1438   1.409       .  A
C1437      C1442   1.400       .  A
C1437     Br1444   1.922       .  S
C1438      C1439   1.412       .  A
C1439      C1440   1.419       .  A
C1439     Br1446   1.922       .  S
C1440      C1441   1.414       .  A
C1440     Br1445   1.927       .  S
C1441      C1442   1.412       .  A
C1442     Br1443   1.937       .  S
C1447      C1448   1.416       .  A
C1447      C1452   1.422       .  A
C1447     Br1454   1.931       .  S
C1448      C1449   1.417       .  A
C1449      C1450   1.405       .  A
C1449     Br1456   1.940       .  S
C1450      C1451   1.433       .  A
C1450     Br1455   1.951       .  S
C1451      C1452   1.425       .  A
C1452     Br1453   1.931       .  S
C1457      C1458   1.411       .  A
C1457      C1462   1.407       .  A
C1457     Br1464   1.938       .  S
C1458      C1459   1.412       .  A
C1459      C1460   1.420       .  A
C1459     Br1466   1.928       .  S
C1460      C1461   1.417       .  A
C1460     Br1465   1.913       .  S
C1461      C1462   1.421       .  A
C1462     Br1463   1.921       .  S
C1467      C1468   1.423       .  A
C1467      C1472   1.405       .  A
C1467     Br1474   1.938       .  S
C1468      C1469   1.419       .  A
C1469      C1470   1.415       .  A
C1469     Br1476   1.925       .  S
C1470      C1471   1.410       .  A
C1470     Br1475   1.930       .  S
C1471      C1472   1.402       .  A
C1472     Br1473   1.927   1_545  S
C1477      C1478   1.399       .  A
C1477      C1482   1.404       .  A
C1477     Br1484   1.918       .  S
C1478      C1479   1.410       .  A
C1479      C1480   1.411       .  A
C1479     Br1486   1.925       .  S
C1480      C1481   1.413       .  A
C1480     Br1485   1.926       .  S
C1481      C1482   1.415       .  A
C1482     Br1483   1.919       .  S
C1487      C1488   1.411       .  A
C1487      C1492   1.420       .  A
C1487     Br1494   1.924       .  S
C1488      C1489   1.414       .  A
C1489      C1490   1.406       .  A
C1489     Br1496   1.939       .  S
C1490      C1491   1.422       .  A
C1490     Br1495   1.942       .  S
C1491      C1492   1.417       .  A
C1492     Br1493   1.929       .  S
C1497      C1498   1.426       .  A
C1497      C1502   1.402       .  A
C1497     Br1504   1.925       .  S
C1498      C1499   1.421       .  A
C1499      C1500   1.408       .  A
C1499     Br1506   1.922       .  S
C1500      C1501   1.400       .  A
C1500     Br1505   1.928   1_545  S
C1501      C1502   1.395       .  A
C1502     Br1503   1.927       .  S
C1507      C1508   1.408       .  A
C1507      C1512   1.409       .  A
C1507     Br1514   1.939       .  S
C1508      C1509   1.404       .  A
C1509      C1510   1.419       .  A
C1509     Br1516   1.923       .  S
C1510      C1511   1.427       .  A
C1510     Br1515   1.931       .  S
C1511      C1512   1.433       .  A
C1512     Br1513   1.944       .  S
C1517      C1518   1.409       .  A
C1517      C1522   1.399       .  A
C1517     Br1524   1.915       .  S
C1518      C1519   1.422       .  A
C1519      C1520   1.409       .  A
C1519     Br1526   1.928       .  S
C1520      C1521   1.401       .  A
C1520     Br1525   1.922   1_545  S
C1521      C1522   1.401       .  A
C1522     Br1523   1.917       .  S
C1527      C1528   1.437       .  A
C1527      C1532   1.407       .  A
C1527     Br1534   1.930       .  S
C1528      C1529   1.435       .  A
C1529      C1530   1.413       .  A
C1529     Br1536   1.930       .  S
C1530      C1531   1.400       .  A
C1530     Br1535   1.934       .  S
C1531      C1532   1.394       .  A
C1532     Br1533   1.937       .  S
C1537      C1538   1.405       .  A
C1537      C1542   1.421       .  A
C1537     Br1544   1.933       .  S
C1538      C1539   1.404       .  A
C1539      C1540   1.401       .  A
C1539     Br1546   1.939       .  S
C1540      C1541   1.431       .  A
C1540     Br1545   1.941       .  S
C1541      C1542   1.439       .  A
C1542     Br1543   1.937       .  S
C1547      C1548   1.424       .  A
C1547      C1552   1.423       .  A
C1547     Br1554   1.929       .  S
C1548      C1549   1.413       .  A
C1549      C1550   1.402       .  A
C1549     Br1556   1.933       .  S
C1550      C1551   1.414       .  A
C1550     Br1555   1.926       .  S
C1551      C1552   1.412       .  A
C1552     Br1553   1.928       .  S
C1557      C1558   1.407       .  A
C1557      C1562   1.415       .  A
C1557     Br1564   1.931       .  S
C1558      C1559   1.401       .  A
C1559      C1560   1.405       .  A
C1559     Br1566   1.928       .  S
C1560      C1561   1.421       .  A
C1560     Br1565   1.931       .  S
C1561      C1562   1.427       .  A
C1562     Br1563   1.926       .  S
C1567      C1568   1.435       .  A
C1567      C1572   1.404       .  A
C1567     Br1574   1.951       .  S
C1568      C1569   1.431       .  A
C1569      C1570   1.411       .  A
C1569     Br1576   1.937       .  S
C1570      C1571   1.397       .  A
C1570     Br1575   1.931       .  S
C1571      C1572   1.395       .  A
C1572     Br1573   1.932       .  S
C1577      C1578   1.404       .  A
C1577      C1582   1.405       .  A
C1577     Br1584   1.934       .  S
C1578      C1579   1.410       .  A
C1579      C1580   1.410       .  A
C1579     Br1586   1.935       .  S
C1580      C1581   1.417       .  A
C1580     Br1585   1.927       .  S
C1581      C1582   1.418       .  A
C1582     Br1583   1.924       .  S
C1587      C1588   1.417       .  A
C1587      C1592   1.390       .  A
C1587     Br1594   1.940       .  S
C1588      C1589   1.422       .  A
C1589      C1590   1.425       .  A
C1589     Br1596   1.932       .  S
C1590      C1591   1.422       .  A
C1590     Br1595   1.931       .  S
C1591      C1592   1.418       .  A
C1592     Br1593   1.946       .  S
C1597      C1598   1.411       .  A
C1597      C1602   1.402       .  A
C1597     Br1604   1.937       .  S
C1598      C1599   1.411       .  A
C1599      C1600   1.422       .  A
C1599     Br1606   1.929       .  S
C1600      C1601   1.420       .  A
C1600     Br1605   1.926       .  S
C1601      C1602   1.422       .  A
C1602     Br1603   1.942       .  S
C1607      C1608   1.409       .  A
C1607      C1612   1.412       .  A
C1607     Br1614   1.925       .  S
C1608      C1609   1.403       .  A
C1609      C1610   1.412       .  A
C1609     Br1616   1.910       .  S
C1610      C1611   1.408       .  A
C1610     Br1615   1.919       .  S
C1611      C1612   1.411       .  A
C1612     Br1613   1.922       .  S
C1617      C1618   1.434       .  A
C1617      C1622   1.401       .  A
C1617     Br1624   1.943       .  S
C1618      C1619   1.427       .  A
C1619      C1620   1.417       .  A
C1619     Br1626   1.926       .  S
C1620      C1621   1.407       .  A
C1620     Br1625   1.932       .  S
C1621      C1622   1.397       .  A
C1622     Br1623   1.927       .  S
C1627      C1628   1.418       .  A
C1627      C1632   1.404       .  A
C1627     Br1634   1.943       .  S
C1628      C1629   1.420       .  A
C1629      C1630   1.418       .  A
C1629     Br1636   1.926       .  S
C1630      C1631   1.410       .  A
C1630     Br1635   1.929       .  S
C1631      C1632   1.406       .  A
C1632     Br1633   1.919       .  S
C1637      C1638   1.409       .  A
C1637      C1642   1.407       .  A
C1637     Br1644   1.924       .  S
C1638      C1639   1.408       .  A
C1639      C1640   1.419       .  A
C1639     Br1646   1.918       .  S
C1640      C1641   1.416       .  A
C1640     Br1645   1.927       .  S
C1641      C1642   1.420       .  A
C1642     Br1643   1.938       .  S
C1647      C1648   1.418       .  A
C1647      C1652   1.415       .  A
C1647     Br1654   1.931       .  S
C1648      C1649   1.413       .  A
C1649      C1650   1.399       .  A
C1649     Br1656   1.940       .  S
C1650      C1651   1.420       .  A
C1650     Br1655   1.936       .  S
C1651      C1652   1.418       .  A
C1652     Br1653   1.931       .  S
C1657      C1658   1.413       .  A
C1657      C1662   1.404       .  A
C1657     Br1664   1.919       .  S
C1658      C1659   1.416       .  A
C1659      C1660   1.418       .  A
C1659     Br1666   1.929       .  S
C1660      C1661   1.413       .  A
C1660     Br1665   1.927       .  S
C1661      C1662   1.408       .  A
C1662     Br1663   1.934       .  S
C1667      C1668   1.424       .  A
C1667      C1672   1.417       .  A
C1667     Br1674   1.932       .  S
C1668      C1669   1.418       .  A
C1669      C1670   1.390       .  A
C1669     Br1676   1.946       .  S
C1670      C1671   1.414       .  A
C1670     Br1675   1.939       .  S
C1671      C1672   1.415       .  A
C1672     Br1673   1.932       .  S
C1677      C1678   1.417       .  A
C1677      C1682   1.416       .  A
C1677     Br1684   1.926       .  S
C1678      C1679   1.420       .  A
C1679      C1680   1.407       .  A
C1679     Br1686   1.929       .  S
C1680      C1681   1.402       .  A
C1680     Br1685   1.927   1_554  S
C1681      C1682   1.410       .  A
C1682     Br1683   1.927       .  S
C1687      C1688   1.411       .  A
C1687      C1692   1.422       .  A
C1687     Br1694   1.923       .  S
C1688      C1689   1.412       .  A
C1689      C1690   1.401       .  A
C1689     Br1696   1.925       .  S
C1690      C1691   1.413       .  A
C1690     Br1695   1.938       .  S
C1691      C1692   1.416       .  A
C1692     Br1693   1.924       .  S
C1697      C1698   1.426       .  A
C1697      C1702   1.394       .  A
C1697     Br1704   1.939       .  S
C1698      C1699   1.435       .  A
C1699      C1700   1.431       .  A
C1699     Br1706   1.931       .  S
C1700      C1701   1.413       .  A
C1700     Br1705   1.928       .  S
C1701      C1702   1.408       .  A
C1702     Br1703   1.939   1_554  S
C1707      C1708   1.421       .  A
C1707      C1712   1.408       .  A
C1707     Br1714   1.935       .  S
C1708      C1709   1.432       .  A
C1709      C1710   1.415       .  A
C1709     Br1716   1.932       .  S
C1710      C1711   1.405       .  A
C1710     Br1715   1.934       .  S
C1711      C1712   1.402       .  A
C1712     Br1713   1.926       .  S
C1717      C1718   1.426       .  A
C1717      C1722   1.400       .  A
C1717     Br1724   1.941       .  S
C1718      C1719   1.430       .  A
C1719      C1720   1.412       .  A
C1719     Br1726   1.938       .  S
C1720      C1721   1.405       .  A
C1720     Br1725   1.932       .  S
C1721      C1722   1.404       .  A
C1722     Br1723   1.938   1_554  S
C1727      C1728   1.412       .  A
C1727      C1732   1.417       .  A
C1727     Br1734   1.920       .  S
C1728      C1729   1.407       .  A
C1729      C1730   1.400       .  A
C1729     Br1736   1.934       .  S
C1730      C1731   1.413       .  A
C1730     Br1735   1.935       .  S
C1731      C1732   1.411       .  A
C1732     Br1733   1.925       .  S
C1737      C1738   1.420       .  A
C1737      C1742   1.411       .  A
C1737     Br1744   1.923       .  S
C1738      C1739   1.421       .  A
C1739      C1740   1.410       .  A
C1739     Br1746   1.921       .  S
C1740      C1741   1.399       .  A
C1740     Br1745   1.921   1_554  S
C1741      C1742   1.402       .  A
C1742     Br1743   1.925       .  S
C1747      C1748   1.419       .  A
C1747      C1752   1.405       .  A
C1747     Br1754   1.928       .  S
C1748      C1749   1.415       .  A
C1749      C1750   1.400       .  A
C1749     Br1756   1.933       .  S
C1750      C1751   1.405       .  A
C1750     Br1755   1.928   1_554  S
C1751      C1752   1.405       .  A
C1752     Br1753   1.931       .  S
C1757      C1758   1.418       .  A
C1757      C1762   1.392       .  A
C1757     Br1764   1.941       .  S
C1758      C1759   1.421       .  A
C1759      C1760   1.424       .  A
C1759     Br1766   1.921       .  S
C1760      C1761   1.414       .  A
C1760     Br1765   1.926       .  S
C1761      C1762   1.411       .  A
C1762     Br1763   1.939       .  S
C1767      C1768   1.405       .  A
C1767      C1772   1.411       .  A
C1767     Br1774   1.917       .  S
C1768      C1769   1.411       .  A
C1769      C1770   1.414       .  A
C1769     Br1776   1.917       .  S
C1770      C1771   1.414       .  A
C1770     Br1775   1.930       .  S
C1771      C1772   1.420       .  A
C1772     Br1773   1.932       .  S
