geometry optimzed in LAMMPS
_audit_creation_date              2020-11-30 
_audit_creation_method            'lammps2cif' 
_symmetry_space_group_name_H-M    'P1' 
_symmetry_Int_Tables_number       1 
_symmetry_cell_setting            triclinic 
loop_ 
_symmetry_equiv_pos_as_xyz 
  x,y,z 
_cell_length_a                    31.6755517358537 
_cell_length_b                    31.57292866827261 
_cell_length_c                    31.76021701467768 
_cell_angle_alpha                 92.65096896757373 
_cell_angle_beta                  92.5454618751714 
_cell_angle_gamma                 92.8661267072956 
loop_ 
_atom_site_label 
_atom_site_type_symbol 
_atom_site_fract_x 
_atom_site_fract_y 
_atom_site_fract_z 
_atom_site_charge 
C1          C  0.64144945  0.64247791  0.87420597     0.02970
C2          C  0.66870454  0.61808071  0.89869654    -0.13180
C3          C  0.66912723  0.62039767  0.94258268     0.00470
C4          C  0.64179833  0.64755496  0.96290971    -0.11710
C5          C  0.61756662  0.67561150  0.94003142     0.02960
C6          C  0.61714520  0.67249143  0.89596545    -0.11130
H7          H  0.69126153  0.59801755  0.88492971     0.08550
H8          H  0.64193231  0.64922070  0.99690989     0.06080
H9          H  0.59872691  0.69489246  0.87949329     0.05930
C10         C  0.89852935  0.63982247  0.62002523     0.02970
C11         C  0.92070591  0.66822562  0.59404585    -0.13180
C12         C  0.96494390  0.67110932  0.59451716     0.00470
C13         C  0.98758643  0.64452241  0.62049933    -0.11710
C14         C  0.96704092  0.61927241  0.64939045     0.02960
C15         C  0.92290930  0.61730315  0.64912696    -0.11130
H16         H  0.90453563  0.68949488  0.57406157     0.08550
H17         H  0.02167741  0.64606285  0.62067216     0.06080
H18         H  0.90872887  0.59899666  0.67293818     0.05930
C19         C  0.65214100  0.91361923  0.61996351     0.02970
C20         C  0.62144090  0.93398627  0.64214275    -0.13180
C21         C  0.61363623  0.97606672  0.63505657     0.00470
C22         C  0.63554941  0.99685779  0.60316373    -0.11710
C23         C  0.66735750  0.97631023  0.58117866     0.02960
C24         C  0.67451330  0.93416917  0.58931952    -0.11130
H25         H  0.60676033  0.91829993  0.66788067     0.08550
H26         H  0.63121673  0.03016464  0.59879041     0.06080
H27         H  0.70027592  0.91851237  0.57477765     0.05930
C28         C  0.71159151  0.71177578  0.73889595     0.02120
C29         C  0.70127944  0.75313788  0.72837881     0.02120
C30         C  0.72077720  0.77072724  0.69409444     0.02120
C31         C  0.75390580  0.75074790  0.67449436     0.02120
C32         C  0.76288392  0.70932493  0.68615728     0.02120
C33         C  0.75142282  0.69836876  0.72704307     0.02120
C34         C  0.40396083  0.41124960  0.89055147     0.02970
C35         C  0.39094818  0.44737203  0.91163703    -0.13180
C36         C  0.39107378  0.44752829  0.95519564     0.00470
C37         C  0.41803630  0.42014985  0.97654115    -0.11710
C38         C  0.44103585  0.39021834  0.95341079     0.02960
C39         C  0.43431311  0.38678514  0.90965529    -0.11130
H40         H  0.36928151  0.46736967  0.89527486     0.08550
H41         H  0.41863832  0.41975019  0.00994044     0.06080
H42         H  0.44624625  0.36008032  0.89196815     0.05930
C43         C  0.97746842  0.35205127  0.31968415     0.02970
C44         C  0.98171054  0.39313742  0.30655754    -0.13180
C45         C  0.99192991  0.42742283  0.33565998     0.00470
C46         C  0.99735465  0.41877834  0.37962860    -0.11710
C47         C  0.99267712  0.37590383  0.39251925     0.02960
C48         C  0.98277806  0.34380388  0.36153038    -0.11130
H49         H  0.97622665  0.39807010  0.27325071     0.08550
H50         H  0.00558324  0.44439455  0.40280989     0.06080
H51         H  0.97812787  0.31090229  0.36950203     0.05930
C52         C  0.34254012  0.01786379  0.31350313     0.02970
C53         C  0.33035888  0.02833639  0.35380008    -0.13180
C54         C  0.35998982  0.02510779  0.38767668     0.00470
C55         C  0.40402620  0.02509596  0.37854864    -0.11710
C56         C  0.41583296  0.02749036  0.33549933     0.02960
C57         C  0.38333465  0.03081727  0.30427942    -0.11130
H58         H  0.29675446  0.02581124  0.35898556     0.08550
H59         H  0.42765524  0.02027523  0.40329194     0.06080
H60         H  0.39045826  0.03006488  0.27120411     0.05930
C61         C  0.84084273  0.84875388  0.49284664     0.02970
C62         C  0.88193013  0.83589570  0.49024315    -0.13180
C63         C  0.91586210  0.86539608  0.48565065     0.00470
C64         C  0.90715523  0.90948097  0.48435025    -0.11710
C65         C  0.86490324  0.92230633  0.48944194     0.02960
C66         C  0.83375213  0.89141202  0.49827818    -0.11130
H67         H  0.88636340  0.80210659  0.48663158     0.08550
H68         H  0.93207748  0.93274127  0.47811124     0.06080
H69         H  0.80114892  0.89978213  0.50108181     0.05930
C70         C  0.94167004  0.89546916  0.59213057     0.02970
C71         C  0.91279485  0.86878927  0.61208073    -0.13180
C72         C  0.87205555  0.88024227  0.61990862     0.00470
C73         C  0.86006268  0.92087048  0.61112693    -0.11710
C74         C  0.88725120  0.94995097  0.59164636     0.02960
C75         C  0.92887246  0.93703316  0.58214295    -0.11130
H76         H  0.92090366  0.83693787  0.61943832     0.08550
H77         H  0.82832052  0.92917926  0.61835260     0.06080
H78         H  0.94963403  0.95767041  0.56510987     0.05930
C79         C  0.84170767  0.49277960  0.81990272     0.02970
C80         C  0.83043528  0.49591311  0.86145726    -0.13180
C81         C  0.86085486  0.50605658  0.89463168     0.00470
C82         C  0.90418074  0.51244994  0.88473226    -0.11710
C83         C  0.91557444  0.50893757  0.84182605     0.02960
C84         C  0.88350549  0.49915859  0.81035584    -0.11130
H85         H  0.79742621  0.48930708  0.86763547     0.08550
H86         H  0.92819489  0.52001156  0.90959948     0.06080
H87         H  0.89074887  0.49498026  0.77741607     0.05930
C88         C  0.89161504  0.62293950  0.92132873     0.02970
C89         C  0.93382874  0.61479965  0.91060104    -0.13180
C90         C  0.94959037  0.62990268  0.87230487     0.00470
C91         C  0.92456996  0.65626105  0.84844575    -0.11710
C92         C  0.88160392  0.65944622  0.85527168     0.02960
C93         C  0.86599920  0.64314869  0.89202047    -0.11130
H94         H  0.95282906  0.59510153  0.93006425     0.08550
H95         H  0.93828060  0.67157703  0.82219035     0.06080
H96         H  0.83269590  0.64485096  0.89731852     0.05930
C97         C  0.09903905  0.89097839  0.43727169     0.02970
C98         C  0.12080676  0.92716385  0.45859452    -0.13180
C99         C  0.15319939  0.95080649  0.43879969     0.00470
C100        C  0.16105975  0.93931313  0.39715358    -0.11710
C101        C  0.14495451  0.90022576  0.37960514     0.02960
C102        C  0.11115734  0.87856607  0.39712421    -0.11130
H103        H  0.11465299  0.93502572  0.49117453     0.08550
H104        H  0.18751031  0.95485508  0.38237651     0.06080
H105        H  0.09992828  0.84786953  0.38305521     0.05930
C106        C  0.14800510  0.86708312  0.58494769     0.02970
C107        C  0.17685257  0.83714093  0.59780447    -0.13180
C108        C  0.22068063  0.84759651  0.60004779     0.00470
C109        C  0.23619895  0.88823304  0.59188761    -0.11710
C110        C  0.20921606  0.91888040  0.57922305     0.02960
C111        C  0.16484706  0.90814130  0.57503525    -0.11130
H112        H  0.16553239  0.80510756  0.60351142     0.08550
H113        H  0.27016286  0.89528011  0.59298544     0.06080
H114        H  0.14386653  0.93081091  0.56219699     0.05930
O115        O  0.05987388  0.74399828  0.60955569    -0.80300
O116        O  0.04601657  0.83262884  0.43903333    -0.80320
O117        O  0.10463787  0.74096474  0.47551825    -0.80330
O118        O  0.08642407  0.86157118  0.53816755    -0.80270
O119        O  0.05665936  0.74399729  0.42435820    -0.80400
O120        O  0.07977326  0.82853085  0.59644863    -0.80320
O121        O  0.07151540  0.86498611  0.49963021    -0.80300
O122        O  0.10408490  0.74366333  0.56122208    -0.80340
C123        C  0.09255189  0.72953906  0.59523664     1.09390
C124        C  0.07037872  0.86132044  0.45940764     1.09270
C125        C  0.09220943  0.73127901  0.43781816     1.09410
C126        C  0.10265359  0.85232271  0.57342128     1.09290
O127        O  0.98076845  0.83322501  0.57881188    -0.80300
O128        O  0.97718737  0.72410725  0.46068189    -0.80380
O129        O  0.02305619  0.69342157  0.55503235    -0.80310
O130        O  0.99226170  0.86754446  0.49054072    -0.80290
O131        O  0.96049287  0.80777486  0.47197889    -0.80350
O132        O  0.97869789  0.74279804  0.57380008    -0.80310
O133        O  0.01278329  0.89336229  0.56350367    -0.80270
O134        O  0.03132604  0.68496230  0.47114955    -0.80340
Co135      Co  0.02569992  0.78752444  0.58211111     1.51530
Co136      Co  0.01154018  0.77825974  0.45368911     1.51690
Co137      Co  0.06486162  0.72065955  0.51624657     1.51570
Co138      Co  0.02725127  0.83993860  0.53474444     1.51470
O139        O  0.03696578  0.77914189  0.51542332    -1.42230
C140        C  0.98103875  0.87422096  0.57845872     1.09320
C141        C  0.99396785  0.68844182  0.45713877     1.09410
C142        C  0.98876240  0.70401766  0.57148870     1.09340
C143        C  0.95825669  0.84702597  0.48054556     1.09320
C144        C  0.40208262  0.60416587  0.93682884     0.02970
C145        C  0.40495241  0.60116468  0.89314318    -0.13180
C146        C  0.43287046  0.62865233  0.87303724     0.00470
C147        C  0.46022033  0.65778715  0.89667773    -0.11710
C148        C  0.45921242  0.66090151  0.94057791     0.02960
C149        C  0.43127347  0.63259384  0.96064822    -0.11130
H150        H  0.38196773  0.58109049  0.87410971     0.08550
H151        H  0.47900611  0.68111919  0.88055032     0.06080
H152        H  0.43089402  0.63420166  0.99456461     0.05930
C153        C  0.39280672  0.96966124  0.56451585     0.02970
C154        C  0.39293022  0.92545365  0.56758823    -0.13180
C155        C  0.42350818  0.90772151  0.59399685     0.00470
C156        C  0.45372747  0.93358879  0.61774532    -0.11710
C157        C  0.45248674  0.97732527  0.61838644     0.02960
C158        C  0.42433389  0.99528358  0.58899439    -0.11130
H159        H  0.36780342  0.90514639  0.55199321     0.08550
H160        H  0.47499312  0.91927970  0.64010758     0.06080
H161        H  0.42607468  0.02915043  0.58618400     0.05930
C162        C  0.34931590  0.73345256  0.64300286     0.02120
C163        C  0.38752379  0.74831952  0.66416784     0.02120
C164        C  0.40141807  0.72910955  0.70128791     0.02120
C165        C  0.37859333  0.69289183  0.71492823     0.02120
C166        C  0.34144317  0.67690011  0.69206213     0.02120
C167        C  0.33009478  0.69397989  0.65297248     0.02120
C168        C  0.16069954  0.63698348  0.60742223     0.02970
C169        C  0.14609850  0.61866643  0.64375080    -0.13180
C170        C  0.11486958  0.63818474  0.66640405     0.00470
C171        C  0.09687401  0.67464338  0.65036697    -0.11710
C172        C  0.10779782  0.68915695  0.61073273     0.02960
C173        C  0.13576256  0.66594981  0.58699419    -0.11130
H174        H  0.16396649  0.59428209  0.65816080     0.08550
H175        H  0.07440584  0.69164024  0.66853559     0.06080
H176        H  0.14664616  0.67855713  0.55795258     0.05930
O177        O  0.98307241  0.60100826  0.72049619    -0.80300
O178        O  0.96277877  0.51282007  0.78679079    -0.80320
O179        O  0.02777200  0.49635580  0.66471094    -0.80330
O180        O  0.01804858  0.59794587  0.86929425    -0.80270
O181        O  0.97514989  0.49054698  0.70645085    -0.80400
O182        O  0.98512893  0.61136826  0.80957474    -0.80320
O183        O  0.99221481  0.52509151  0.84764375    -0.80300
O184        O  0.02662417  0.58191457  0.67088715    -0.80340
C185        C  0.99250813  0.59819630  0.68189550     1.09390
C186        C  0.95901110  0.51508857  0.82580292     1.09270
C187        C  0.99025629  0.48411092  0.67042132     1.09410
C188        C  0.98687384  0.61349429  0.85038389     1.09290
O189        O  0.08302579  0.62762590  0.80424573    -0.80300
O190        O  0.05128446  0.45135041  0.72996915    -0.80380
O191        O  0.10957243  0.58363653  0.71597156    -0.80310
O192        O  0.07435007  0.53230925  0.84369164    -0.80290
O193        O  0.04393702  0.47166827  0.81621198    -0.80350
O194        O  0.06671322  0.63420172  0.72021012    -0.80310
O195        O  0.08991023  0.57036236  0.83903080    -0.80270
O196        O  0.10350093  0.49413516  0.71027721    -0.80340
Co197      Co  0.03016920  0.61113496  0.76392763     1.51530
Co198      Co  0.01009192  0.48595776  0.76068034     1.51690
Co199      Co  0.06586911  0.54018022  0.69645968     1.51570
Co200      Co  0.03081581  0.56628820  0.81750606     1.51470
O201        O  0.04112989  0.54411681  0.75763739    -1.42230
C202        C  0.10583341  0.60557211  0.82855396     1.09320
C203        C  0.08564866  0.45720819  0.71134127     1.09410
C204        C  0.09916015  0.61956016  0.70505842     1.09340
C205        C  0.07043424  0.49209102  0.84307250     1.09320
C206        C  0.09770957  0.47090830  0.87489421     0.02970
C207        C  0.12894808  0.49453484  0.90163327    -0.13180
C208        C  0.15989111  0.47409350  0.92626443     0.00470
C209        C  0.15820173  0.42995185  0.92451620    -0.11710
C210        C  0.12895249  0.40684244  0.89672967     0.02960
C211        C  0.09650910  0.42689446  0.87534758    -0.11130
H212        H  0.13088415  0.52874153  0.90135984     0.08550
H213        H  0.18378143  0.41377563  0.93962624     0.06080
H214        H  0.07557589  0.40830420  0.85281018     0.05930
C215        C  0.22083452  0.62635369  0.81080409     0.02970
C216        C  0.24060007  0.62031474  0.85016938    -0.13180
C217        C  0.21675123  0.61317715  0.88539481     0.00470
C218        C  0.17167953  0.61056770  0.87976972    -0.11710
C219        C  0.15144536  0.61725839  0.83971621     0.02960
C220        C  0.17679356  0.62641790  0.80613423    -0.11130
H221        H  0.27484608  0.62004498  0.85311549     0.08550
H222        H  0.15270862  0.60122700  0.90562268     0.06080
H223        H  0.16227242  0.63064081  0.77517639     0.05930
C224        C  0.49973781  0.84825822  0.81131974     0.02970
C225        C  0.49837004  0.89000004  0.79939217    -0.13180
C226        C  0.50164391  0.92446695  0.82945589     0.00470
C227        C  0.50470381  0.91523515  0.87340942    -0.11710
C228        C  0.50549603  0.87201350  0.88555802     0.02960
C229        C  0.50587597  0.83997237  0.85351043    -0.11130
H230        H  0.49239333  0.89515199  0.76619871     0.08550
H231        H  0.50528769  0.94080141  0.89735732     0.06080
H232        H  0.50617412  0.80685983  0.86117323     0.05930
C233        C  0.61876467  0.90028624  0.91154482     0.02970
C234        C  0.64207591  0.87455839  0.88483584    -0.13180
C235        C  0.65104744  0.88597236  0.84437649     0.00470
C236        C  0.63997064  0.92539464  0.83085615    -0.11710
C237        C  0.61722103  0.95313910  0.85616246     0.02960
C238        C  0.60667488  0.94047396  0.89727286    -0.11130
H239        H  0.65068806  0.84340868  0.89415916     0.08550
H240        H  0.64735512  0.93323546  0.79904351     0.06080
H241        H  0.58728204  0.96010844  0.91651187     0.05930
C242        C  0.11839558  0.63633929  0.36203870     0.02970
C243        C  0.09602298  0.67086691  0.37975546    -0.13180
C244        C  0.11460762  0.69727318  0.41415123     0.00470
C245        C  0.15556443  0.68879269  0.42885495    -0.11710
C246        C  0.18000821  0.66269158  0.40424124     0.02960
C247        C  0.15962283  0.63091419  0.37755068    -0.11130
H248        H  0.06486391  0.67707768  0.36698627     0.08550
H249        H  0.17176480  0.71031640  0.45259763     0.06080
H250        H  0.17852243  0.60779912  0.36186824     0.05930
C251        C  0.31183540  0.83988294  0.29148683     0.02120
C252        C  0.28600533  0.81744131  0.31826145     0.02120
C253        C  0.28956856  0.77348494  0.31973776     0.02120
C254        C  0.30915571  0.75344266  0.28677906     0.02120
C255        C  0.34421232  0.77487810  0.27159519     0.02120
C256        C  0.34169864  0.81888293  0.26822527     0.02120
C257        C  0.38788133  0.64150964  0.09152506     0.02970
C258        C  0.40623012  0.67459080  0.06741768    -0.13180
C259        C  0.43831488  0.70396745  0.08603932     0.00470
C260        C  0.45063948  0.69947024  0.12830943    -0.11710
C261        C  0.42617456  0.67339807  0.15300959     0.02960
C262        C  0.40008555  0.64043619  0.13406622    -0.11130
H263        H  0.39545374  0.67763128  0.03499479     0.08550
H264        H  0.47233781  0.72335863  0.14419951     0.06080
H265        H  0.38333564  0.61880875  0.15386793     0.05930
O266        O  0.36693368  0.58214813  0.99753561    -0.80300
O267        O  0.23854972  0.62006686  0.05062363    -0.80320
O268        O  0.25454768  0.55982481  0.91670299    -0.80330
O269        O  0.33346787  0.58265402  0.09389546    -0.80270
O270        O  0.23914758  0.61351455  0.95965113    -0.80400
O271        O  0.36159008  0.59610827  0.03456195    -0.80320
O272        O  0.24528835  0.57403956  0.09908611    -0.80300
O273        O  0.34075384  0.55403449  0.93556472    -0.80340
C274        C  0.36753964  0.57940021  0.95712838     1.09390
C275        C  0.23121496  0.60836762  0.08744281     1.09270
C276        C  0.23908780  0.59590532  0.92272893     1.09410
C277        C  0.35823299  0.60675245  0.07273142     1.09290
O278        O  0.38879707  0.52066909  0.06652325    -0.80300
O279        O  0.19150528  0.53667482  0.96096554    -0.80380
O280        O  0.32110862  0.46962871  0.97005035    -0.80310
O281        O  0.23782673  0.49176051  0.06269424    -0.80290
O282        O  0.19192857  0.53958379  0.04575403    -0.80350
O283        O  0.37501565  0.50879592  0.99387015    -0.80310
O284        O  0.32777756  0.48587546  0.07021891    -0.80270
O285        O  0.23273755  0.48268512  0.95517272    -0.80340
Co286      Co  0.33863374  0.53816825  0.03305125     1.51530
Co287      Co  0.22152336  0.57619025  0.00505602     1.51690
Co288      Co  0.28709837  0.51820736  0.94960335     1.51570
Co289      Co  0.28612538  0.53460198  0.07440551     1.51470
O290        O  0.28149488  0.54874279  0.00860262    -1.42230
C291        C  0.36855614  0.48677238  0.07598860     1.09320
C292        C  0.19660229  0.49854150  0.94931913     1.09410
C293        C  0.36102971  0.47512123  0.97573365     1.09340
C294        C  0.20003573  0.50431769  0.06090335     1.09320
O295        O  0.01077445  0.50319559  0.33734948    -0.80300
O296        O  0.07754441  0.54204767  0.16015504    -0.80320
O297        O  0.98437954  0.49074600  0.19611760    -0.80330
O298        O  0.09337155  0.48663305  0.29541483    -0.80270
O299        O  0.99222302  0.54431674  0.15541591    -0.80400
O300        O  0.08373467  0.51782434  0.35716822    -0.80320
O301        O  0.09074381  0.49359376  0.20648026    -0.80300
O302        O  0.99415984  0.47286854  0.27739748    -0.80340
C303        C  0.99791448  0.47002220  0.31679756     1.09390
C304        C  0.09091331  0.50615405  0.16882862     1.09270
C305        C  0.97967944  0.50637420  0.16037700     1.09410
C306        C  0.09489728  0.48540959  0.33612081     1.09290
O307        O  0.06011971  0.59457635  0.33139421    -0.80300
O308        O  0.99527752  0.62056141  0.20534391    -0.80380
O309        O  0.96000231  0.55743880  0.30458993    -0.80310
O310        O  0.13074628  0.57470369  0.21557397    -0.80290
O311        O  0.08424358  0.62211140  0.20820593    -0.80350
O312        O  0.02182211  0.58248631  0.33354415    -0.80310
O313        O  0.12035878  0.58154134  0.30423100    -0.80270
O314        O  0.94718700  0.56976602  0.21697563    -0.80340
Co315      Co  0.05448389  0.53718845  0.30625574     1.51530
Co316      Co  0.03770980  0.58069878  0.18831306     1.51690
Co317      Co  0.97611682  0.52466209  0.24922693     1.51570
Co318      Co  0.10182060  0.53571845  0.25516440     1.51470
O319        O  0.03673334  0.55234199  0.24794532    -1.42230
C320        C  0.09899671  0.60432434  0.32978158     1.09320
C321        C  0.95735041  0.60565219  0.20245645     1.09410
C322        C  0.98151221  0.58059353  0.33337051     1.09340
C323        C  0.12057267  0.60940849  0.20107007     1.09320
C324        C  0.14301728  0.41633887  0.11375782     0.02970
C325        C  0.16766055  0.43729821  0.08505099    -0.13180
C326        C  0.16558096  0.48075208  0.08156509     0.00470
C327        C  0.13502298  0.50235515  0.10441219    -0.11710
C328        C  0.11177613  0.48155147  0.13533332     0.02960
C329        C  0.11512989  0.43807260  0.13863043    -0.11130
H330        H  0.19202584  0.42054426  0.06924414     0.08550
H331        H  0.13231720  0.53599359  0.10106964     0.06080
H332        H  0.09957793  0.42192249  0.16357789     0.05930
C333        C  0.89519213  0.47147325  0.07420743     0.02970
C334        C  0.92397326  0.49778001  0.10077550    -0.13180
C335        C  0.95660081  0.48091552  0.12525737     0.00470
C336        C  0.96225762  0.43767206  0.12109404    -0.11710
C337        C  0.93258443  0.41062670  0.09769277     0.02960
C338        C  0.89966998  0.42743092  0.07335099    -0.11130
H339        H  0.91958140  0.53121131  0.10442174     0.08550
H340        H  0.98599097  0.42409206  0.14138820     0.06080
H341        H  0.87588565  0.40621724  0.05680030     0.05930
C342        C  0.85656615  0.65787825  0.19044339     0.02970
C343        C  0.89736001  0.65023073  0.20502299    -0.13180
C344        C  0.92368602  0.62782038  0.17986660     0.00470
C345        C  0.91016531  0.61671640  0.13717106    -0.11710
C346        C  0.86932744  0.62671837  0.12076312     0.02960
C347        C  0.84268260  0.64730634  0.14840468    -0.11130
H348        H  0.90639034  0.65635043  0.23824071     0.08550
H349        H  0.93077344  0.59923372  0.11743878     0.06080
H350        H  0.81011646  0.65182942  0.13844925     0.05930
O351        O  0.74153007  0.63818144  0.03774209    -0.80300
O352        O  0.83325226  0.47007028  0.02432569    -0.80320
O353        O  0.72991369  0.50117687  0.08523972    -0.80330
O354        O  0.85875009  0.57172514  0.06578856    -0.80270
O355        O  0.74632114  0.45432091  0.03533396    -0.80400
O356        O  0.82665341  0.62980607  0.05435793    -0.80320
O357        O  0.86105710  0.53172771  0.05215884    -0.80300
O358        O  0.73660941  0.59045270  0.08360021    -0.80340
C359        C  0.72559011  0.62541568  0.07046782     1.09390
C360        C  0.86060221  0.49135128  0.04940111     1.09270
C361        C  0.72981160  0.46308397  0.07032984     1.09410
C362        C  0.85118552  0.60904869  0.07843748     1.09290
O363        O  0.82884992  0.60543164  0.95777123    -0.80300
O364        O  0.72473133  0.49166409  0.95689192    -0.80380
O365        O  0.68995272  0.58321808  0.00240280    -0.80310
O366        O  0.86536104  0.52160008  0.97080085    -0.80290
O367        O  0.80473463  0.50625180  0.94112760    -0.80350
O368        O  0.73955640  0.59905342  0.95753032    -0.80310
O369        O  0.88868872  0.59473803  0.99186426    -0.80270
O370        O  0.68315800  0.49807179  0.00937968    -0.80340
Co371      Co  0.78429160  0.61080159  0.00319395     1.51530
Co372      Co  0.77793306  0.48496391  0.99114191     1.51690
Co373      Co  0.71560902  0.54407273  0.04418059     1.51570
Co374      Co  0.83621223  0.56495164  0.00722539     1.51470
O375        O  0.77643720  0.54491555  0.01867379    -1.42230
C376        C  0.86971070  0.60776056  0.95932560     1.09320
C377        C  0.68890424  0.48551045  0.97211205     1.09410
C378        C  0.70102839  0.59818793  0.96776209     1.09340
C379        C  0.84388363  0.51038802  0.93772241     1.09320
C380        C  0.59570771  0.97159641  0.36859469     0.02970
C381        C  0.59267801  0.92767142  0.37136234    -0.13180
C382        C  0.62107613  0.90774817  0.39800913     0.00470
C383        C  0.65044079  0.93143762  0.42501930    -0.11710
C384        C  0.65529763  0.97511175  0.42231662     0.02960
C385        C  0.62694472  0.99534228  0.39485946    -0.11130
H386        H  0.57198100  0.90846578  0.34912110     0.08550
H387        H  0.67357504  0.91518430  0.44367230     0.06080
H388        H  0.63084353  0.02926565  0.39232179     0.05930
C389        C  0.96230962  0.60326555  0.37001437     0.02970
C390        C  0.98839683  0.62846764  0.40042551    -0.13180
C391        C  0.97089735  0.65144406  0.43413483     0.00470
C392        C  0.92847436  0.64405395  0.44110292    -0.11710
C393        C  0.90184087  0.62327569  0.40958003     0.02960
C394        C  0.91858264  0.60142027  0.37500020    -0.11130
H395        H  0.02198383  0.63165610  0.39711589     0.08550
H396        H  0.91465847  0.66255742  0.46618313     0.06080
H397        H  0.89742291  0.58678079  0.35013709     0.05930
C398        C  0.70593698  0.76169567  0.34837458     0.02120
C399        C  0.73720924  0.74522949  0.37498049     0.02120
C400        C  0.75616708  0.70768106  0.36202620     0.02120
C401        C  0.74507094  0.68852351  0.32222136     0.02120
C402        C  0.70821032  0.70019641  0.30099041     0.02120
C403        C  0.69354074  0.74049019  0.30992393     0.02120
C404        C  0.63798815  0.65141995  0.13975737     0.02970
C405        C  0.66432028  0.62637170  0.11635126    -0.13180
C406        C  0.68712281  0.64525919  0.08502284     0.00470
C407        C  0.67343253  0.68380328  0.06922878    -0.11710
C408        C  0.63860040  0.70370328  0.08660909     0.02960
C409        C  0.62040036  0.68641280  0.12170674    -0.11130
H410        H  0.67593245  0.59818284  0.13026564     0.08550
H411        H  0.68968151  0.69811366  0.04371975     0.06080
H412        H  0.59787943  0.70421816  0.13909088     0.05930
O413        O  0.59745586  0.74797389  0.95126030    -0.80300
O414        O  0.49502401  0.81686629  0.93351435    -0.80320
O415        O  0.49632910  0.69358860  0.00168311    -0.80330
O416        O  0.58924052  0.89969854  0.98164221    -0.80270
O417        O  0.48490282  0.73376280  0.94837646    -0.80400
O418        O  0.60185529  0.83855562  0.94985205    -0.80320
O419        O  0.51542987  0.87721498  0.96261486    -0.80300
O420        O  0.58055767  0.70085915  0.99838469    -0.80340
C421        C  0.59587322  0.70979594  0.96321726     1.09390
C422        C  0.50374056  0.85585733  0.92959153     1.09270
C423        C  0.48219990  0.69766664  0.96430995     1.09410
C424        C  0.60348221  0.87959904  0.95018763     1.09290
O425        O  0.62221032  0.83769258  0.04770381    -0.80300
O426        O  0.44799375  0.75044607  0.02766493    -0.80380
O427        O  0.58482735  0.75311206  0.07788374    -0.80310
O428        O  0.52502261  0.87350185  0.04236434    -0.80290
O429        O  0.46368253  0.83970104  0.02035173    -0.80350
O430        O  0.63328912  0.75310241  0.03328610    -0.80310
O431        O  0.56429997  0.87089800  0.05600663    -0.80270
O432        O  0.49876337  0.74938335  0.07589908    -0.80340
Co433      Co  0.60639162  0.79462502  0.99617678     1.51530
Co434      Co  0.47764650  0.78649030  0.98402373     1.51690
Co435      Co  0.54055184  0.72916221  0.03749205     1.51570
Co436      Co  0.55896229  0.84781521  0.99743488     1.51470
O437        O  0.53982336  0.78721422  0.00866489    -1.42230
C438        C  0.60007123  0.86168365  0.07108509     1.09320
C439        C  0.46145615  0.73814004  0.06320722     1.09410
C440        C  0.62006801  0.74086871  0.06747011     1.09340
C441        C  0.48488852  0.86833668  0.04407431     1.09320
C442        C  0.46409663  0.89514272  0.07648138     0.02970
C443        C  0.42694716  0.87875340  0.09310286    -0.13180
C444        C  0.41070727  0.89894393  0.12835952     0.00470
C445        C  0.42749290  0.93838492  0.14408246    -0.11710
C446        C  0.46727837  0.95312590  0.13263198     0.02960
C447        C  0.48510905  0.93212585  0.09737766    -0.11130
H448        H  0.41395980  0.84744647  0.08247794     0.08550
H449        H  0.41387028  0.95244435  0.17186065     0.06080
H450        H  0.51607300  0.94283265  0.08792754     0.05930
C451        C  0.63561104  0.85117404  0.18500950     0.02970
C452        C  0.63196262  0.84498569  0.14104131    -0.13180
C453        C  0.61322974  0.87511311  0.11620561     0.00470
C454        C  0.60053602  0.91333631  0.13708105    -0.11710
C455        C  0.60688391  0.92068884  0.18183469     0.02960
C456        C  0.62390698  0.88885161  0.20501559    -0.11130
H457        H  0.64053162  0.81501017  0.12667639     0.08550
H458        H  0.58460937  0.93644205  0.11894165     0.06080
H459        H  0.62664036  0.89265008  0.23918382     0.05930
C460        C  0.65017171  0.37076699  0.08965806     0.02970
C461        C  0.66544638  0.41332999  0.08274234    -0.13180
C462        C  0.70899544  0.42677870  0.09104587     0.00470
C463        C  0.73642911  0.39778942  0.10620455    -0.11710
C464        C  0.72288108  0.35578907  0.11044441     0.02960
C465        C  0.67997076  0.34227482  0.10360979    -0.11130
H466        H  0.64413563  0.43522164  0.06913635     0.08550
H467        H  0.76999595  0.40676402  0.11016485     0.06080
H468        H  0.67052220  0.30906582  0.10622622     0.05930
C469        C  0.90097842  0.22900479  0.20111539     0.02120
C470        C  0.88977161  0.25061947  0.16456805     0.02120
C471        C  0.85097075  0.23936891  0.14302043     0.02120
C472        C  0.82973084  0.19980361  0.14982285     0.02120
C473        C  0.83825078  0.18030825  0.18817231     0.02120
C474        C  0.87542933  0.19340149  0.21254217     0.02120
C475        C  0.71534159  0.11117050  0.38006305     0.02970
C476        C  0.73916003  0.11551102  0.34416301    -0.13180
C477        C  0.71939481  0.12039356  0.30444799     0.00470
C478        C  0.67538914  0.12214043  0.30031798    -0.11710
C479        C  0.64994011  0.11602771  0.33443933     0.02960
C480        C  0.67018042  0.11034612  0.37476642    -0.11130
H481        H  0.77333464  0.11447486  0.34706992     0.08550
H482        H  0.66074537  0.12579017  0.26933159     0.06080
H483        H  0.65105874  0.10302852  0.40115174     0.05930
O484        O  0.57150129  0.03298740  0.33762691    -0.80300
O485        O  0.61165492  0.08265955  0.20960666    -0.80320
O486        O  0.55310032  0.95011127  0.22254280    -0.80330
O487        O  0.58216674  0.12761131  0.29777004    -0.80270
O488        O  0.60558473  0.99410131  0.20641417    -0.80400
O489        O  0.58681152  0.07137108  0.33452061    -0.80320
O490        O  0.56913252  0.13356381  0.21280111    -0.80300
O491        O  0.54390197  0.97124284  0.30900757    -0.80340
C492        C  0.56903683  0.99248578  0.33635339     1.09390
C493        C  0.60177755  0.11859265  0.19827264     1.09270
C494        C  0.58853844  0.95684754  0.20579455     1.09410
C495        C  0.60388591  0.10583255  0.32343868     1.09290
O496        O  0.51207164  0.10006604  0.36028480    -0.80300
O497        O  0.52981850  0.99462361  0.15773486    -0.80380
O498        O  0.46147420  0.00950763  0.28060160    -0.80310
O499        O  0.48563705  0.10007129  0.20993225    -0.80290
O500        O  0.53063226  0.08050075  0.16194933    -0.80350
O501        O  0.49237268  0.02680996  0.34015842    -0.80310
O502        O  0.48253098  0.11150846  0.29867448    -0.80270
O503        O  0.47745640  0.99170245  0.19977186    -0.80340
Co504      Co  0.52904346  0.06777595  0.30954644     1.51530
Co505      Co  0.56809277  0.03909306  0.18988163     1.51690
Co506      Co  0.51089514  0.98506567  0.25371584     1.51570
Co507      Co  0.53061247  0.11089138  0.25542861     1.51470
O508        O  0.54177223  0.04390834  0.25073836    -1.42230
C509        C  0.48069432  0.11333155  0.33941314     1.09320
C510        C  0.49227647  0.98255248  0.16418555     1.09410
C511        C  0.45842574  0.01903453  0.31920291     1.09340
C512        C  0.49635424  0.09691799  0.17166941     1.09320
O513        O  0.50326761  0.37558430  0.99245432    -0.80300
O514        O  0.52631281  0.19207110  0.04266861    -0.80320
O515        O  0.47763586  0.23402093  0.95428094    -0.80330
O516        O  0.48400159  0.33068381  0.07459046    -0.80270
O517        O  0.52891076  0.19011439  0.95787251    -0.80400
O518        O  0.51711604  0.39169615  0.06595725    -0.80320
O519        O  0.48355247  0.24159505  0.06380835    -0.80300
O520        O  0.46510420  0.32094538  0.96849938    -0.80340
C521        C  0.47007583  0.36089983  0.97352472     1.09390
C522        C  0.49315372  0.20281400  0.06054567     1.09270
C523        C  0.49189213  0.19763881  0.94560972     1.09410
C524        C  0.48423109  0.37166716  0.07767954     1.09290
O525        O  0.59165060  0.36335573  0.03856550    -0.80300
O526        O  0.60671613  0.23573359  0.96042677    -0.80380
O527        O  0.55096939  0.34055785  0.93686491    -0.80310
O528        O  0.56514965  0.24085758  0.09881824    -0.80290
O529        O  0.60841800  0.23664531  0.04876325    -0.80350
O530        O  0.57837827  0.36626368  0.99953966    -0.80310
O531        O  0.58316685  0.32725869  0.09446216    -0.80270
O532        O  0.55554190  0.25426321  0.91669278    -0.80340
Co533      Co  0.53289408  0.34028852  0.03338931     1.51530
Co534      Co  0.56656917  0.21961232  0.00353025     1.51690
Co535      Co  0.51392344  0.28737963  0.94932217     1.51570
Co536      Co  0.53016362  0.28588190  0.07554253     1.51470
O537        O  0.54256090  0.28152003  0.00882865    -1.42230
C538        C  0.60637136  0.35347630  0.07421393     1.09320
C539        C  0.59060641  0.23719281  0.92325632     1.09410
C540        C  0.57666582  0.36642335  0.95912256     1.09340
C541        C  0.59623841  0.22394238  0.08338327     1.09320
C542        C  0.40629007  0.14838720  0.11769775     0.02970
C543        C  0.42836133  0.12031629  0.14197825    -0.13180
C544        C  0.47163412  0.11741920  0.13834722     0.00470
C545        C  0.49198758  0.14072429  0.10734710    -0.11710
C546        C  0.46977621  0.17012820  0.08359517     0.02960
C547        C  0.42661792  0.17297592  0.08847448    -0.11130
H548        H  0.41264487  0.10445780  0.16701870     0.08550
H549        H  0.52575563  0.13923993  0.10479214     0.06080
H550        H  0.40970853  0.19730471  0.07280825     0.05930
C551        C  0.46193721  0.11347062  0.85546180     0.02970
C552        C  0.48522820  0.13393344  0.89124677    -0.13180
C553        C  0.46684938  0.16549451  0.91724905     0.00470
C554        C  0.42467445  0.17272325  0.90969021    -0.11710
C555        C  0.40470871  0.15878391  0.87144274     0.02960
C556        C  0.42188898  0.12783749  0.84519379    -0.11130
H557        H  0.51796829  0.12715457  0.89737045     0.08550
H558        H  0.41036576  0.19710190  0.92875021     0.06080
H559        H  0.40609613  0.11846643  0.81497395     0.05930
C560        C  0.62801950  0.23013855  0.81433132     0.02970
C561        C  0.62272028  0.24458605  0.85571486    -0.13180
C562        C  0.60957488  0.21699486  0.88578005     0.00470
C563        C  0.60273030  0.17290953  0.87367465    -0.11710
C564        C  0.61032948  0.15708059  0.83183197     0.02960
C565        C  0.62308848  0.18664477  0.80249424    -0.11130
H566        H  0.62550259  0.27847470  0.86369462     0.08550
H567        H  0.58968152  0.15152676  0.89596199     0.06080
H568        H  0.62657940  0.17628538  0.76990235     0.05930
O569        O  0.62931592  0.07143127  0.70589036    -0.80300
O570        O  0.46042793  0.05883437  0.79744701    -0.80320
O571        O  0.49480121  0.11524026  0.70265803    -0.80330
O572        O  0.56133493  0.09648828  0.82519241    -0.80270
O573        O  0.44433498  0.06640654  0.70890883    -0.80400
O574        O  0.61878498  0.08990671  0.79077276    -0.80320
O575        O  0.52232393  0.08258148  0.82842734    -0.80300
O576        O  0.58060409  0.11546282  0.70420019    -0.80340
C577        C  0.61483334  0.10372443  0.69059662     1.09390
C578        C  0.48205862  0.08310975  0.82538976     1.09270
C579        C  0.45708889  0.10167026  0.69478016     1.09410
C580        C  0.59693232  0.11238977  0.81585120     1.09290
O581        O  0.60030011  0.99083473  0.79417526    -0.80300
O582        O  0.47998912  0.98698337  0.69027622    -0.80380
O583        O  0.57401989  0.03444145  0.65557270    -0.80310
O584        O  0.51250735  0.00184190  0.83221518    -0.80290
O585        O  0.49212652  0.97130083  0.77289742    -0.80350
O586        O  0.59206926  0.99048923  0.70522124    -0.80310
O587        O  0.58603484  0.02256984  0.85430222    -0.80270
O588        O  0.48963107  0.03991286  0.64911848    -0.80340
Co589      Co  0.60239795  0.03680220  0.74950347     1.51530
Co590      Co  0.47398077  0.02253695  0.74351605     1.51690
Co591      Co  0.53526181  0.07527335  0.68304899     1.51570
Co592      Co  0.55571659  0.03742095  0.80248143     1.51470
O593        O  0.53564190  0.04836928  0.74247076    -1.42230
C594        C  0.60131886  0.99131992  0.83489458     1.09320
C595        C  0.47587371  0.00242314  0.65410021     1.09410
C596        C  0.59036153  0.00044379  0.66663974     1.09340
C597        C  0.50060626  0.96814279  0.81174287     1.09320
C598        C  0.60254148  0.40037815  0.93954981     0.02970
C599        C  0.60140926  0.40422964  0.89572778    -0.13180
C600        C  0.62615589  0.43646895  0.87822879     0.00470
C601        C  0.65077565  0.46594489  0.90409829    -0.11710
C602        C  0.65450934  0.46126691  0.94724366     0.02960
C603        C  0.62942016  0.42933003  0.96511712    -0.11130
H604        H  0.58392384  0.38056794  0.87511089     0.08550
H605        H  0.67142004  0.48918840  0.88987200     0.06080
H606        H  0.63253255  0.42580614  0.99865294     0.05930
C607        C  0.96005625  0.40708301  0.57446256     0.02970
C608        C  0.98454531  0.43297668  0.60554389    -0.13180
C609        C  0.96531178  0.46076531  0.63462967     0.00470
C610        C  0.92162534  0.46356699  0.63104219    -0.11710
C611        C  0.89739676  0.43824262  0.60062440     0.02960
C612        C  0.91650740  0.41114273  0.57185914    -0.11130
H613        H  0.01828371  0.43002747  0.60854549     0.08550
H614        H  0.90589546  0.48229221  0.65456229     0.06080
H615        H  0.89680285  0.39003508  0.55041347     0.05930
C616        C  0.68370607  0.39992385  0.71397730     0.02120
C617        C  0.72217463  0.41308456  0.69639205     0.02120
C618        C  0.73652244  0.38975840  0.66120858     0.02120
C619        C  0.71433241  0.35214558  0.64541396     0.02120
C620        C  0.67435071  0.34130293  0.66095463     0.02120
C621        C  0.66325666  0.36088139  0.69960220     0.02120
C622        C  0.63026455  0.17268733  0.59947356     0.02970
C623        C  0.60846324  0.14780551  0.62765125    -0.13180
C624        C  0.63077452  0.11838451  0.65018331     0.00470
C625        C  0.66949482  0.10535376  0.63491295    -0.11710
C626        C  0.68675979  0.12379739  0.59919818     0.02960
C627        C  0.66617278  0.15717155  0.58107675    -0.11130
H628        H  0.57995549  0.15975954  0.64049702     0.08550
H629        H  0.68620930  0.08122541  0.65097420     0.06080
H630        H  0.68180467  0.17537509  0.55759985     0.05930
O631        O  0.73759812  0.99026805  0.55997072    -0.80300
O632        O  0.80946989  0.96748751  0.47258280    -0.80320
O633        O  0.68743094  0.03707014  0.45621351    -0.80330
O634        O  0.88733023  0.02183426  0.56426630    -0.80270
O635        O  0.72747424  0.98272902  0.45168730    -0.80400
O636        O  0.82611544  0.98920420  0.57364454    -0.80320
O637        O  0.86871939  0.99953224  0.49100238    -0.80300
O638        O  0.68925079  0.03521336  0.54130273    -0.80340
C639        C  0.69928327  0.00081730  0.55791160     1.09390
C640        C  0.84830326  0.96513149  0.48194215     1.09270
C641        C  0.69194648  0.99902813  0.44504544     1.09410
C642        C  0.86698262  0.98961664  0.57713102     1.09290
O643        O  0.82271576  0.08815439  0.59126492    -0.80300
O644        O  0.75380749  0.05918189  0.41309527    -0.80380
O645        O  0.73671507  0.11765212  0.54491282    -0.80310
O646        O  0.86449168  0.08028884  0.49729590    -0.80290
O647        O  0.83876216  0.05025687  0.43583909    -0.80350
O648        O  0.73847002  0.07340262  0.59448183    -0.80310
O649        O  0.85922512  0.09615081  0.53555822    -0.80270
O650        O  0.73528026  0.11216859  0.45526412    -0.80340
Co651      Co  0.78190908  0.03594188  0.57257543     1.51530
Co652      Co  0.78287861  0.01666256  0.44791180     1.51690
Co653      Co  0.71814386  0.07434451  0.50068263     1.51570
Co654      Co  0.83688141  0.03679131  0.53090386     1.51470
O655        O  0.77840483  0.04761966  0.50611891    -1.42230
C656        C  0.84744768  0.11176785  0.57022607     1.09320
C657        C  0.73721102  0.09478850  0.41836693     1.09410
C658        C  0.72476614  0.10675368  0.58028656     1.09340
C659        C  0.86465633  0.07690618  0.45717509     1.09320
C660        C  0.89645814  0.10464279  0.43670137     0.02970
C661        C  0.89890196  0.10286699  0.39304087    -0.13180
C662        C  0.92396947  0.13321946  0.37339896     0.00470
C663        C  0.94881034  0.16447038  0.39729873    -0.11710
C664        C  0.94798701  0.16647477  0.44123076     0.02960
C665        C  0.92224401  0.13587855  0.46075373    -0.11130
H666        H  0.87789552  0.08084295  0.37384881     0.08550
H667        H  0.96589995  0.18925918  0.38147531     0.06080
H668        H  0.92055173  0.13799683  0.49464507     0.05930
C669        C  0.83159800  0.22773257  0.59614882     0.02970
C670        C  0.82563180  0.18332052  0.59411743    -0.13180
C671        C  0.85867105  0.15749172  0.58317292     0.00470
C672        C  0.89913604  0.17751894  0.57709546    -0.11710
C673        C  0.90590702  0.22253197  0.58157557     0.02960
C674        C  0.87151641  0.24692258  0.59038295    -0.11130
H675        H  0.79432586  0.16913719  0.59818617     0.08550
H676        H  0.92454863  0.15846546  0.56677887     0.06080
H677        H  0.87549116  0.28130170  0.59140300     0.05930
C678        C  0.43084772  0.12359859  0.66323770     0.02970
C679        C  0.40162079  0.10237652  0.63279178    -0.13180
C680        C  0.37581184  0.12615007  0.60532589     0.00470
C681        C  0.37588785  0.16995345  0.61334507    -0.11710
C682        C  0.39908797  0.18828317  0.64849326     0.02960
C683        C  0.43319607  0.16771984  0.66551863    -0.11130
H684        H  0.39757401  0.06832253  0.63211194     0.08550
H685        H  0.35205722  0.18805626  0.59783421     0.06080
H686        H  0.45273263  0.18409468  0.69076293     0.05930
C687        C  0.27736561  0.30568217  0.81951981     0.02120
C688        C  0.23473259  0.29313895  0.81832908     0.02120
C689        C  0.22000013  0.25967393  0.79026007     0.02120
C690        C  0.24933745  0.23384768  0.77103613     0.02120
C691        C  0.29181143  0.24880434  0.77260312     0.02120
C692        C  0.30616859  0.27885263  0.80324503     0.02120
O693        O  0.36164612  0.02488485  0.46375717    -0.80300
O694        O  0.18178679  0.07781162  0.49965357    -0.80320
O695        O  0.22112433  0.98874365  0.44768748    -0.80330
O696        O  0.32030900  0.10774932  0.45106570    -0.80270
O697        O  0.17949489  0.99176096  0.50050224    -0.80400
O698        O  0.38108665  0.09807791  0.48387686    -0.80320
O699        O  0.22935527  0.09861508  0.45454952    -0.80300
O700        O  0.30283799  0.00716660  0.43121521    -0.80340
C701        C  0.34175246  0.01678261  0.42935300     1.09390
C702        C  0.19115395  0.09587021  0.46616057     1.09270
C703        C  0.18561056  0.97969709  0.46304759     1.09410
C704        C  0.36142831  0.11093393  0.45158254     1.09290
O705        O  0.35345197  0.06834367  0.55741934    -0.80300
O706        O  0.22833450  0.99353039  0.57583529    -0.80380
O707        O  0.33152896  0.96876983  0.51357857    -0.80310
O708        O  0.23340375  0.13335173  0.53662883    -0.80290
O709        O  0.22927948  0.08264230  0.57949305    -0.80350
O710        O  0.35778711  0.03038218  0.54288989    -0.80310
O711        O  0.32219255  0.12723173  0.54707182    -0.80270
O712        O  0.24533062  0.94932657  0.52391894    -0.80340
Co713      Co  0.32996154  0.06530710  0.49972259     1.51530
Co714      Co  0.21062479  0.03744226  0.53753618     1.51690
Co715      Co  0.27562110  0.98307883  0.48087207     1.51570
Co716      Co  0.27644260  0.10927869  0.49843653     1.51470
O717        O  0.27129749  0.04216719  0.51094328    -1.42230
C718        C  0.34830814  0.10628175  0.56945564     1.09320
C719        C  0.22930016  0.95614074  0.55953172     1.09410
C720        C  0.35851009  0.98996247  0.53915198     1.09340
C721        C  0.21739279  0.11816807  0.56853595     1.09320
O722        O  0.02007857  0.37647263  0.54666692    -0.80300
O723        O  0.07039531  0.24162388  0.58701158    -0.80320
O724        O  0.93753786  0.26101443  0.52890305    -0.80330
O725        O  0.11350849  0.33517805  0.55508109    -0.80270
O726        O  0.98057980  0.24343442  0.58127004    -0.80400
O727        O  0.05872544  0.37441126  0.55832964    -0.80320
O728        O  0.12020878  0.24798012  0.54310685    -0.80300
O729        O  0.95822952  0.34693965  0.52222005    -0.80340
C730        C  0.97985368  0.37474179  0.54653905     1.09390
C731        C  0.10638673  0.23155647  0.57547576     1.09270
C732        C  0.94349358  0.24471792  0.56439046     1.09410
C733        C  0.09264247  0.36293714  0.57541315     1.09290
O734        O  0.08361019  0.39685122  0.48319507    -0.80300
O735        O  0.98048167  0.19671177  0.50482632    -0.80380
O736        O  0.99751058  0.32003395  0.43975077    -0.80310
O737        O  0.08552538  0.24473218  0.46060642    -0.80290
O738        O  0.06583787  0.19668987  0.50544638    -0.80350
O739        O  0.01017409  0.38121767  0.46853515    -0.80310
O740        O  0.09517991  0.33327781  0.45655645    -0.80270
O741        O  0.97762568  0.23839212  0.45199184    -0.80340
Co742      Co  0.05172216  0.34730304  0.50205794     1.51530
Co743      Co  0.02533873  0.22609913  0.54328894     1.51690
Co744      Co  0.97219808  0.29203635  0.48752599     1.51570
Co745      Co  0.09664688  0.29110823  0.50501054     1.51470
O746        O  0.03056237  0.28789784  0.51793459    -1.42230
C747        C  0.09586478  0.37391243  0.45275125     1.09320
C748        C  0.97052618  0.20225136  0.46679096     1.09410
C749        C  0.99890982  0.35950880  0.43584256     1.09340
C750        C  0.08274924  0.20628759  0.47140329     1.09320
C751        C  0.13442317  0.15255136  0.38088204     0.02970
C752        C  0.15947829  0.12355836  0.40076123    -0.13180
C753        C  0.15752501  0.11875144  0.44390203     0.00470
C754        C  0.12778336  0.14195621  0.46656791    -0.11710
C755        C  0.10380922  0.17286377  0.44667006     0.02960
C756        C  0.10649919  0.17665697  0.40344445    -0.11130
H757        H  0.18361458  0.10808530  0.38338292     0.08550
H758        H  0.12620570  0.13884387  0.50014027     0.06080
H759        H  0.09028738  0.20158802  0.38799244     0.05930
C760        C  0.09993647  0.41949604  0.68704832     0.02970
C761        C  0.10438470  0.38323953  0.70978318    -0.13180
C762        C  0.10708360  0.34375123  0.68907377     0.00470
C763        C  0.10403997  0.33914303  0.64551701    -0.11710
C764        C  0.10127048  0.37408070  0.62105462     0.02960
C765        C  0.09794927  0.41497957  0.64183526    -0.11130
H766        H  0.10750401  0.38597436  0.74400070     0.08550
H767        H  0.10725121  0.30791417  0.63068153     0.06080
H768        H  0.09203002  0.44221162  0.62337486     0.05930
C769        C  0.12784607  0.19403503  0.59235604     0.02970
C770        C  0.16099215  0.17426612  0.57079203    -0.13180
C771        C  0.17913996  0.13715426  0.58636307     0.00470
C772        C  0.16182408  0.11964791  0.62187482    -0.11710
C773        C  0.14063027  0.14659573  0.64884072     0.02960
C774        C  0.11620453  0.17765992  0.63077381    -0.11130
H775        H  0.17312857  0.18806046  0.54289114     0.08550
H776        H  0.17661750  0.09283397  0.63541185     0.06080
H777        H  0.09573148  0.19551423  0.65059783     0.05930
C778        C  0.66520727  0.13424795  0.10123402     0.02970
C779        C  0.65180875  0.11824759  0.13918479    -0.13180
C780        C  0.61832842  0.13656680  0.15950553     0.00470
C781        C  0.59901074  0.17106251  0.14083893    -0.11710
C782        C  0.61001801  0.18351177  0.10041113     0.02960
C783        C  0.63811126  0.15916978  0.07812467    -0.11130
H784        H  0.67119476  0.09647940  0.15581178     0.08550
H785        H  0.57559113  0.18814558  0.15760095     0.06080
H786        H  0.64826412  0.16980947  0.04802249     0.05930
C787        C  0.18854285  0.69453176  0.15535084     0.02970
C788        C  0.20552008  0.67488942  0.12008059    -0.13180
C789        C  0.20213422  0.63080970  0.11573822     0.00470
C790        C  0.17525874  0.60867046  0.14347577    -0.11710
C791        C  0.14893637  0.63115733  0.17125806     0.02960
C792        C  0.15346438  0.67528659  0.17346168    -0.11130
H793        H  0.23044615  0.69169021  0.10421813     0.08550
H794        H  0.17579640  0.57461591  0.14437086     0.06080
H795        H  0.13824858  0.69257878  0.19838237     0.05930
C796        C  0.37145056  0.37432614  0.11062500     0.02970
C797        C  0.41275966  0.36322181  0.10524244    -0.13180
C798        C  0.44370668  0.39192609  0.09070610     0.00470
C799        C  0.43192029  0.43496932  0.08473012    -0.11710
C800        C  0.38867376  0.44635627  0.08946499     0.02960
C801        C  0.35988358  0.41526276  0.10352412    -0.11130
H802        H  0.42006772  0.33077954  0.11112208     0.08550
H803        H  0.45449383  0.45759501  0.07250719     0.06080
H804        H  0.32721309  0.42229698  0.10817513     0.05930
C805        C  0.36732187  0.14496082  0.34005576     0.02970
C806        C  0.40877320  0.13949563  0.32940112    -0.13180
C807        C  0.43917692  0.12528663  0.35846977     0.00470
C808        C  0.42596500  0.11795214  0.40071226    -0.11710
C809        C  0.38275910  0.12409721  0.41176397     0.02960
C810        C  0.35505237  0.13879290  0.38069457    -0.11130
H811        H  0.41667472  0.14525767  0.29723601     0.08550
H812        H  0.44773432  0.10493414  0.42329933     0.06080
H813        H  0.32240503  0.14414989  0.38731555     0.05930
C814        C  0.12337739  0.37150090  0.33844943     0.02970
C815        C  0.11774647  0.36076256  0.37975634    -0.13180
C816        C  0.10530334  0.39076768  0.41038211     0.00470
C817        C  0.09872551  0.43311889  0.39788222    -0.11710
C818        C  0.10459409  0.44400946  0.35517465     0.02960
C819        C  0.11752215  0.41252821  0.32666792    -0.11130
H820        H  0.12329392  0.32843740  0.38774469     0.08550
H821        H  0.08771812  0.45644373  0.42032686     0.06080
H822        H  0.12297688  0.41946805  0.29417511     0.05930
C823        C  0.20901751  0.26981680  0.18182601     0.02120
C824        C  0.24647502  0.25346681  0.16775487     0.02120
C825        C  0.25999906  0.21593125  0.18430369     0.02120
C826        C  0.24292843  0.20085142  0.22103364     0.02120
C827        C  0.20638033  0.21847700  0.23591116     0.02120
C828        C  0.19049247  0.25458776  0.21793807     0.02120
C829        C  0.13906997  0.34095346  0.30749040    -0.05630
C830        C  0.11250523  0.30762513  0.28887011    -0.33060
C831        C  0.12765323  0.27981467  0.25781239     0.36190
C832        C  0.16971619  0.28545318  0.24587023    -0.05990
C833        C  0.19578964  0.31883885  0.26496460    -0.32960
C834        C  0.18067181  0.34672665  0.29499338     0.36100
H835        H  0.08024898  0.30331922  0.29842403     0.16470
O836        O  0.10152655  0.24760366  0.23931201    -0.60450
H837        H  0.22889038  0.32201865  0.25803706     0.16480
O838        O  0.20735323  0.37853057  0.31346559    -0.60550
H839        H  0.20715925  0.40166514  0.29337686     0.43480
H840        H  0.09596851  0.22772552  0.26194480     0.43430
C841        C  0.33594322  0.15813448  0.30867871    -0.05630
C842        C  0.31307415  0.12796457  0.28144392    -0.33060
C843        C  0.28133447  0.14068528  0.25323127     0.36190
C844        C  0.27268464  0.18379116  0.25243766    -0.05990
C845        C  0.29585438  0.21352905  0.27967887    -0.32960
C846        C  0.32717060  0.20102121  0.30765599     0.36100
H847        H  0.31970631  0.09475294  0.28221368     0.16470
O848        O  0.25977810  0.11125791  0.22617416    -0.60450
H849        H  0.29030477  0.24696264  0.27834740     0.16480
O850        O  0.34900566  0.23088637  0.33407987    -0.60550
H851        H  0.37384439  0.24035979  0.31833868     0.43480
H852        H  0.23395532  0.10267542  0.24085863     0.43430
C853        C  0.27912970  0.28327711  0.15148264    -0.05630
C854        C  0.28227018  0.28909614  0.10823914    -0.33060
C855        C  0.31239988  0.31883255  0.09429839     0.36190
C856        C  0.33976568  0.34253712  0.12382212    -0.05990
C857        C  0.33658369  0.33663061  0.16678936    -0.32960
C858        C  0.30666783  0.30721381  0.18082155     0.36100
H859        H  0.26115864  0.27102026  0.08555326     0.16470
O860        O  0.31514427  0.32436105  0.05191892    -0.60450
H861        H  0.35701023  0.35540043  0.18960045     0.16480
O862        O  0.30201739  0.30412386  0.22342008    -0.60550
H863        H  0.33066986  0.30073530  0.23633004     0.43480
H864        H  0.29652124  0.34786403  0.04577408     0.43430
C865        C  0.18772466  0.20161687  0.27330798    -0.05630
C866        C  0.16100460  0.16479770  0.26831887    -0.33060
C867        C  0.14223996  0.14820467  0.30323645     0.36190
C868        C  0.14968505  0.16945660  0.34268962    -0.05990
C869        C  0.17639254  0.20601471  0.34761221    -0.32960
C870        C  0.19639355  0.22166315  0.31339407     0.36100
H871        H  0.15488590  0.14908640  0.23743229     0.16470
O872        O  0.11650801  0.11190333  0.29863118    -0.60450
H873        H  0.18286459  0.22163813  0.37853739     0.16480
O874        O  0.22377809  0.25672309  0.31922442    -0.60550
H875        H  0.24549519  0.24964696  0.34090337     0.43480
H876        H  0.13565305  0.08832388  0.30243642     0.43430
C877        C  0.23210981  0.20152322  0.73929282    -0.05630
C878        C  0.20233200  0.17072696  0.75236966    -0.33060
C879        C  0.17168417  0.15168013  0.72353058     0.36190
C880        C  0.17067431  0.16442484  0.68197066    -0.05990
C881        C  0.20255909  0.19258652  0.66891255    -0.32960
C882        C  0.23341253  0.21046767  0.69642738     0.36100
H883        H  0.20077445  0.16427414  0.78549493     0.16470
O884        O  0.14170021  0.12304384  0.73663019    -0.60450
H885        H  0.20336798  0.20234880  0.63692513     0.16480
O886        O  0.26201786  0.23972029  0.68158729    -0.60550
H887        H  0.24609372  0.25962519  0.66443703     0.43480
H888        H  0.15369765  0.09489434  0.73191662     0.43430
C889        C  0.18668905  0.27209319  0.76094312    -0.05630
C890        C  0.20163653  0.29589586  0.72817829    -0.33060
C891        C  0.17451000  0.31514575  0.70191941     0.36190
C892        C  0.13147289  0.31338142  0.71002333    -0.05990
C893        C  0.11535187  0.28904418  0.74209629    -0.32960
C894        C  0.14335089  0.26753932  0.76771902     0.36100
H895        H  0.23525984  0.30229927  0.72500840     0.16470
O896        O  0.19094469  0.34060730  0.67204271    -0.60450
H897        H  0.08198843  0.28847783  0.74830343     0.16480
O898        O  0.12890582  0.24438571  0.80011064    -0.60550
H899        H  0.11961883  0.26552394  0.82136500     0.43480
H900        H  0.19458384  0.32126405  0.64710710     0.43430
C901        C  0.32224710  0.23436041  0.74313928    -0.05630
C902        C  0.32778761  0.19131089  0.73873921    -0.33060
C903        C  0.35196274  0.17610468  0.70719020     0.36190
C904        C  0.37294962  0.20482179  0.68096888    -0.05990
C905        C  0.36910815  0.24830960  0.68660741    -0.32960
C906        C  0.34323577  0.26334563  0.71745486     0.36100
H907        H  0.31178700  0.16927484  0.75867904     0.16470
O908        O  0.35312431  0.13294816  0.70095140    -0.60450
H909        H  0.38516783  0.27020651  0.66660136     0.16480
O910        O  0.33724499  0.30598013  0.72131431    -0.60550
H911        H  0.31396403  0.31096479  0.70050817     0.43480
H912        H  0.36940303  0.12322346  0.72580408     0.43430
C913        C  0.73967008  0.31683411  0.62862349    -0.05630
C914        C  0.75441533  0.28794839  0.65763618    -0.33060
C915        C  0.78160111  0.25671344  0.64615003     0.36190
C916        C  0.79641008  0.25490800  0.60536428    -0.05990
C917        C  0.78172138  0.28327883  0.57568678    -0.32960
C918        C  0.75284891  0.31380658  0.58699097     0.36100
H919        H  0.74783795  0.29213910  0.69064809     0.16470
O920        O  0.79624185  0.23029497  0.67602094    -0.60450
H921        H  0.79359506  0.28244682  0.54421102     0.16480
O922        O  0.73990382  0.34200118  0.55816397    -0.60550
H923        H  0.71218690  0.32988847  0.54627755     0.43480
H924        H  0.82160878  0.24567394  0.68984136     0.43430
C925        C  0.65410096  0.29973585  0.64643507    -0.05630
C926        C  0.66471758  0.26517729  0.66947671    -0.33060
C927        C  0.65715274  0.22477773  0.65393272     0.36190
C928        C  0.63565112  0.21691343  0.61451276    -0.05990
C929        C  0.62306219  0.25089581  0.59077417    -0.32960
C930        C  0.63280434  0.29274889  0.60662171     0.36100
H931        H  0.68369518  0.26848079  0.69813881     0.16470
O932        O  0.67510952  0.19325804  0.67589421    -0.60450
H933        H  0.60735558  0.24501735  0.55992376     0.16480
O934        O  0.62364549  0.32618678  0.58237853    -0.60550
H935        H  0.59679979  0.33649826  0.59288004     0.43480
H936        H  0.65933282  0.19132170  0.70209817     0.43430
C937        C  0.77794787  0.40190229  0.64455242    -0.05630
C938        C  0.78090904  0.43691503  0.61890618    -0.33060
C939        C  0.81972626  0.44943791  0.60286220     0.36190
C940        C  0.85498456  0.42574856  0.61163153    -0.05990
C941        C  0.85192785  0.39083813  0.63663473    -0.32960
C942        C  0.81444838  0.37985800  0.65470375     0.36100
H943        H  0.75328513  0.45471771  0.61193699     0.16470
O944        O  0.82316437  0.48494658  0.57974496    -0.60450
H945        H  0.87969366  0.37334578  0.64423449     0.16480
O946        O  0.81414280  0.34788600  0.68246912    -0.60550
H947        H  0.83796031  0.35461079  0.70348754     0.43480
H948        H  0.81858665  0.47442005  0.54990926     0.43430
C949        C  0.64000356  0.43015946  0.83553146    -0.05630
C950        C  0.61547088  0.44041577  0.80006312    -0.33060
C951        C  0.63104636  0.43408529  0.75975664     0.36190
C952        C  0.67140163  0.41797922  0.75535105    -0.05990
C953        C  0.69570170  0.40925275  0.79156711    -0.32120
C954        C  0.68019985  0.41450288  0.83105447     0.36100
H955        H  0.58437874  0.45254614  0.80362474     0.16470
O956        O  0.60591958  0.44142369  0.72487004    -0.60450
H957        H  0.72510823  0.39404455  0.78984372     0.16480
O958        O  0.70415401  0.40290642  0.86536643    -0.60550
H959        H  0.69526596  0.37281345  0.86923447     0.43480
H960        H  0.61562272  0.46995567  0.71626198     0.43430
C961        C  0.63616129  0.26256398  0.78383435    -0.05630
C962        C  0.60261905  0.27750287  0.75906281    -0.33060
C963        C  0.60943313  0.31234137  0.73381437     0.36190
C964        C  0.65021072  0.33196000  0.73310909    -0.05990
C965        C  0.68302124  0.31755564  0.75939201    -0.32960
C966        C  0.67609980  0.28359346  0.78483455     0.36100
H967        H  0.57124793  0.26225268  0.75954464     0.16470
O968        O  0.57708380  0.32515268  0.70811662    -0.60450
H969        H  0.71523603  0.32997737  0.75698757     0.16480
O970        O  0.70907646  0.26976371  0.80914469    -0.60550
H971        H  0.71056634  0.28844414  0.83520547     0.43480
H972        H  0.56570727  0.34965367  0.72375536     0.43430
C973        C  0.37858147  0.19026182  0.85367470    -0.05630
C974        C  0.39907899  0.22156868  0.83067844    -0.33060
C975        C  0.37862366  0.25811555  0.82071145     0.36190
C976        C  0.33697896  0.26211962  0.83277747    -0.05990
C977        C  0.31928839  0.23395498  0.86100437    -0.32960
C978        C  0.33944797  0.19749147  0.87053187     0.36100
H979        H  0.43127251  0.21794793  0.82134584     0.16470
O980        O  0.39804522  0.28880368  0.79776700    -0.60450
H981        H  0.28726957  0.23723065  0.87096680     0.16480
O982        O  0.32094469  0.16913160  0.89642634    -0.60550
H983        H  0.30418906  0.14839740  0.87717255     0.43480
H984        H  0.41188424  0.27384030  0.77437879     0.43430
C985        C  0.29702416  0.19696729  0.16744902    -0.05630
C986        C  0.33686687  0.20888311  0.18594723    -0.33060
C987        C  0.37246535  0.19254958  0.16961439     0.36190
C988        C  0.36821044  0.16389421  0.13443391    -0.05990
C989        C  0.32854900  0.15186192  0.11546786    -0.32960
C990        C  0.29257963  0.16835842  0.13216010     0.36100
H991        H  0.34054796  0.23117675  0.21277673     0.16470
O992        O  0.41148813  0.20474793  0.18802990    -0.60450
H993        H  0.32566740  0.13003330  0.08802922     0.16480
O994        O  0.25346004  0.15716555  0.11356945    -0.60550
H995        H  0.24215153  0.13348923  0.12995161     0.43480
H996        H  0.42110422  0.23014473  0.17310858     0.43430
C997        C  0.70916844  0.15079821  0.10310949    -0.05630
C998        C  0.74351760  0.12475502  0.09887349    -0.33060
C999        C  0.78479058  0.14160276  0.10951919     0.36190
C1000       C  0.79114182  0.18447530  0.12431014    -0.05990
C1001       C  0.75655094  0.20964036  0.12507349    -0.32960
C1002       C  0.71663815  0.19370951  0.11643110     0.36100
H1003       H  0.73815332  0.09135409  0.08986215     0.16470
O1004       O  0.81790724  0.11528334  0.10925812    -0.60450
H1005       H  0.75754352  0.24040915  0.13985718     0.16480
O1006       O  0.68496236  0.21984278  0.12677959    -0.60550
H1007       H  0.68185229  0.21741305  0.15756008     0.43480
H1008       H  0.83232537  0.12096730  0.08286826     0.43430
C1009       C  0.80216655  0.15845391  0.20916852    -0.05630
C1010       C  0.80553621  0.11766816  0.22471454    -0.33060
C1011       C  0.77758689  0.10314868  0.25479846     0.36190
C1012       C  0.74465364  0.12862408  0.26755809    -0.05990
C1013       C  0.73801834  0.16617154  0.24772218    -0.32960
C1014       C  0.76743755  0.18232720  0.22090015     0.36100
H1015       H  0.83199949  0.09897075  0.21655421     0.16470
O1016       O  0.78394561  0.06530552  0.27297097    -0.60450
H1017       H  0.71307329  0.18624725  0.25752209     0.16480
O1018       O  0.76571867  0.22425747  0.21228763    -0.60550
H1019       H  0.76808274  0.24039493  0.23993861     0.43480
H1020       H  0.76429660  0.04430369  0.25702449     0.43430
C1021       C  0.88575887  0.17360861  0.25301577    -0.05630
C1022       C  0.92407250  0.15322426  0.25743920    -0.33060
C1023       C  0.93737394  0.13864570  0.29652386     0.36190
C1024       C  0.91106260  0.14269061  0.33061766    -0.05990
C1025       C  0.87249637  0.16160899  0.32597688    -0.32960
C1026       C  0.86055125  0.17886405  0.28835972     0.36100
H1027       H  0.94432521  0.15020576  0.23096779     0.16470
O1028       O  0.97583848  0.12091776  0.30122080    -0.60450
H1029       H  0.85278552  0.16576414  0.35280459     0.16480
O1030       O  0.82503194  0.20201596  0.28698070    -0.60550
H1031       H  0.82743966  0.22267647  0.31160887     0.43480
H1032       H  0.99640316  0.14513281  0.30860464     0.43430
C1033       C  0.75617024  0.32628523  0.11755697    -0.05630
C1034       C  0.77292135  0.32370881  0.15849495    -0.33060
C1035       C  0.80724991  0.29880461  0.16655103     0.36190
C1036       C  0.82491775  0.27577084  0.13270274    -0.05990
C1037       C  0.81067522  0.28177505  0.09108299    -0.32960
C1038       C  0.77624453  0.30702551  0.08343590     0.36100
H1039       H  0.75830110  0.33996325  0.18444813     0.16470
O1040       O  0.81885813  0.29109544  0.20764282    -0.60450
H1041       H  0.82406735  0.26446623  0.06508883     0.16480
O1042       O  0.76144445  0.31159784  0.04276240    -0.60550
H1043       H  0.77655987  0.33765120  0.03369541     0.43480
H1044       H  0.81456665  0.31713189  0.22533744     0.43430
C1045       C  0.67761314  0.76518146  0.27438716    -0.05630
C1046       C  0.63421437  0.76891238  0.26672431    -0.33060
C1047       C  0.61987638  0.79490999  0.23524477     0.36190
C1048       C  0.64919643  0.81724345  0.21135327    -0.05990
C1049       C  0.69231995  0.81173647  0.21733100    -0.32960
C1050       C  0.70684814  0.78568585  0.24855855     0.36100
H1051       H  0.61172127  0.75282070  0.28602296     0.16470
O1052       O  0.57733833  0.80010565  0.22940752    -0.60450
H1053       H  0.71486988  0.82972717  0.19957957     0.16480
O1054       O  0.74967516  0.78456549  0.25756803    -0.60550
H1055       H  0.76338510  0.78109234  0.23021814     0.43480
H1056       H  0.56785711  0.78007566  0.20548477     0.43430
C1057       C  0.65551629  0.66030640  0.18220469    -0.05630
C1058       C  0.63590736  0.64498504  0.21744136    -0.33060
C1059       C  0.65460931  0.65510945  0.25754469     0.36190
C1060       C  0.69358623  0.67851599  0.26125562    -0.05990
C1061       C  0.71392090  0.69068947  0.22566421    -0.32960
C1062       C  0.69468172  0.68370518  0.18671650     0.36100
H1063       H  0.60595795  0.62678542  0.21390675     0.16470
O1064       O  0.63436684  0.64334618  0.29276777    -0.60450
H1065       H  0.74304119  0.70970751  0.22791981     0.16480
O1066       O  0.71310081  0.70248385  0.15345462    -0.60550
H1067       H  0.73989821  0.68811441  0.14947385     0.43480
H1068       H  0.61655989  0.66731100  0.30014868     0.43430
C1069       C  0.86278638  0.64427238  0.40215821    -0.05630
C1070       C  0.86753953  0.68638230  0.39082804    -0.33060
C1071       C  0.83285537  0.70984627  0.38316624     0.36190
C1072       C  0.79210224  0.69053824  0.38519476    -0.05990
C1073       C  0.78717802  0.64859156  0.39817441    -0.32960
C1074       C  0.82260805  0.62522389  0.40669522     0.36100
H1075       H  0.89877947  0.70101523  0.38690238     0.16470
O1076       O  0.83948176  0.74953055  0.36846445    -0.60450
H1077       H  0.75587904  0.63318747  0.39880619     0.16480
O1078       O  0.81775898  0.58403112  0.41822927    -0.60550
H1079       H  0.81628024  0.56661993  0.39134916     0.43480
H1080       H  0.85678645  0.76608472  0.39095406     0.43430
C1081       C  0.68424554  0.79977851  0.36148834    -0.05630
C1082       C  0.65478097  0.79605102  0.39301193    -0.33060
C1083       C  0.63128843  0.83054806  0.40457193     0.36190
C1084       C  0.63575761  0.86772679  0.38256902    -0.05990
C1085       C  0.66399797  0.87088931  0.35032215    -0.32960
C1086       C  0.68995320  0.83831619  0.34128571     0.36100
H1087       H  0.65049808  0.76658293  0.40886847     0.16470
O1088       O  0.60444386  0.82787560  0.43712481    -0.60450
H1089       H  0.66865801  0.90046922  0.33459947     0.16480
O1090       O  0.72080393  0.84485126  0.31305010    -0.60550
H1091       H  0.73766549  0.87092787  0.32337242     0.43480
H1092       H  0.62216143  0.83656735  0.46290540     0.43430
C1093       C  0.82695188  0.66623656  0.22319231    -0.05630
C1094       C  0.80266213  0.63184798  0.23755954    -0.33060
C1095       C  0.77955053  0.63675263  0.27374974     0.36190
C1096       C  0.77991780  0.67667473  0.29510314    -0.05990
C1097       C  0.80656123  0.71017270  0.28205900    -0.32960
C1098       C  0.83006663  0.70511041  0.24643418     0.36100
H1099       H  0.80213049  0.60107104  0.22090264     0.16470
O1100       O  0.75415879  0.60358225  0.28600967    -0.60450
H1101       H  0.80603791  0.74152861  0.29712723     0.16480
O1102       O  0.85548203  0.73837359  0.23416494    -0.60550
H1103       H  0.83807742  0.75257278  0.21283323     0.43480
H1104       H  0.77042048  0.59137403  0.30951271     0.43430
C1105       C  0.92628291  0.36846711  0.11407740    -0.05630
C1106       C  0.91351281  0.36769863  0.15535828    -0.33060
C1107       C  0.90704606  0.32991209  0.17490390     0.36190
C1108       C  0.91172397  0.29090250  0.15224426    -0.05990
C1109       C  0.92622269  0.29182478  0.11090224    -0.32960
C1110       C  0.93352616  0.33049370  0.09169696     0.36100
H1111       H  0.90754782  0.39712660  0.17261396     0.16470
O1112       O  0.89129721  0.33195158  0.21422908    -0.60450
H1113       H  0.92916240  0.26237906  0.09261259     0.16480
O1114       O  0.94684883  0.33081087  0.05124910    -0.60550
H1115       H  0.92053598  0.32946026  0.03300338     0.43480
H1116       H  0.90942133  0.35342242  0.23137847     0.43430
C1117       C  0.15913891  0.37818421  0.12977607    -0.05630
C1118       C  0.13889400  0.33853532  0.11948301    -0.33060
C1119       C  0.15557775  0.30249692  0.13595286     0.36190
C1120       C  0.19231007  0.30684913  0.16258849    -0.05990
C1121       C  0.21193718  0.34677793  0.17287418    -0.32960
C1122       C  0.19544702  0.38242260  0.15682094     0.36100
H1123       H  0.11053093  0.33571150  0.09897647     0.16470
O1124       O  0.13564962  0.26341251  0.12660893    -0.60450
H1125       H  0.23949751  0.35070309  0.19414745     0.16480
O1126       O  0.21485083  0.42151127  0.16771328    -0.60550
H1127       H  0.20094289  0.43167857  0.19338914     0.43480
H1128       H  0.15068475  0.25118998  0.10254027     0.43430
C1129       C  0.27860156  0.73712233  0.25254857    -0.05630
C1130       C  0.25680556  0.76659107  0.22855407    -0.33060
C1131       C  0.22784955  0.75333932  0.19622322     0.36190
C1132       C  0.22081129  0.71020303  0.18697663    -0.05990
C1133       C  0.24323056  0.68041732  0.20989044    -0.32960
C1134       C  0.27210930  0.69379573  0.24262524     0.36100
H1135       H  0.26140227  0.80011150  0.23526016     0.16470
O1136       O  0.20636258  0.78255377  0.17423922    -0.60450
H1137       H  0.23775429  0.64667891  0.20274061     0.16480
O1138       O  0.29316911  0.66461672  0.26502186    -0.60550
H1139       H  0.31945343  0.66026908  0.24989603     0.43480
H1140       H  0.18162853  0.78874016  0.19116358     0.43430
C1141       C  0.40590151  0.69752140  0.18526585    -0.05630
C1142       C  0.42007067  0.69857229  0.22762460    -0.33060
C1143       C  0.40064800  0.72472262  0.25677147     0.36190
C1144       C  0.36854820  0.75041302  0.24248461    -0.05990
C1145       C  0.35504182  0.74907523  0.20018109    -0.32960
C1146       C  0.37302384  0.72288209  0.17170645     0.36100
H1147       H  0.44560455  0.67929363  0.23779893     0.16470
O1148       O  0.41318024  0.72536861  0.29868034    -0.60450
H1149       H  0.32944707  0.76767357  0.18905408     0.16480
O1150       O  0.35789742  0.72189606  0.13046399    -0.60550
H1151       H  0.36851545  0.74901380  0.11917404     0.43480
H1152       H  0.39390579  0.70414586  0.31114990     0.43430
C1153       C  0.39188066  0.87306507  0.15981713    -0.05630
C1154       C  0.41949182  0.85801042  0.19096162    -0.33060
C1155       C  0.40384820  0.84226254  0.22759885     0.36190
C1156       C  0.36012227  0.84013449  0.23247364    -0.05990
C1157       C  0.33253844  0.85403012  0.20051948    -0.32960
C1158       C  0.34829920  0.87084375  0.16441081     0.36100
H1159       H  0.45344365  0.86072043  0.18770334     0.16470
O1160       O  0.43126591  0.82889807  0.25827278    -0.60450
H1161       H  0.29866250  0.85155322  0.20332723     0.16480
O1162       O  0.32125064  0.88647152  0.13472291    -0.60550
H1163       H  0.31429814  0.86239013  0.11400935     0.43480
H1164       H  0.43636449  0.85360219  0.27861614     0.43430
C1165       C  0.21082129  0.68814860  0.38264038    -0.05630
C1166       C  0.19441339  0.71046635  0.34897745    -0.33060
C1167       C  0.21909546  0.73965115  0.32948100     0.36190
C1168       C  0.26147644  0.74691771  0.34342201    -0.05990
C1169       C  0.27859653  0.72463324  0.37688480    -0.32960
C1170       C  0.25292118  0.69561599  0.39731206     0.36100
H1171       H  0.16156181  0.70616238  0.33813513     0.16470
O1172       O  0.20133238  0.76126555  0.29721603    -0.60450
H1173       H  0.31164444  0.72988362  0.38699489     0.16480
O1174       O  0.26897630  0.67473368  0.43086111    -0.60550
H1175       H  0.26412085  0.69323530  0.45609373     0.43480
H1176       H  0.18883745  0.73945511  0.27614367     0.43430
C1177       C  0.14654502  0.37178595  0.87373440    -0.05630
C1178       C  0.16359237  0.38204537  0.83530420    -0.33060
C1179       C  0.19393668  0.35773505  0.81809859     0.36190
C1180       C  0.20479056  0.32063143  0.83755997    -0.05990
C1181       C  0.18608965  0.30865375  0.87459748    -0.32960
C1182       C  0.15738799  0.33474015  0.89336884     0.36100
H1183       H  0.15658120  0.41146174  0.82073493     0.16470
O1184       O  0.21328940  0.37068084  0.78271955    -0.60450
H1185       H  0.19483246  0.27993359  0.88944087     0.16480
O1186       O  0.14217300  0.32539585  0.93176832    -0.60550
H1187       H  0.11497869  0.30902216  0.92510993     0.43480
H1188       H  0.22857515  0.39816335  0.79115320     0.43430
C1189       C  0.24657428  0.63480235  0.77463250    -0.05630
C1190       C  0.27547804  0.60548718  0.76029499    -0.33060
C1191       C  0.30509141  0.61705893  0.73061628     0.36190
C1192       C  0.30646182  0.65860626  0.71654351    -0.05990
C1193       C  0.27674762  0.68696737  0.73076994    -0.32960
C1194       C  0.24581117  0.67485146  0.75779843     0.36100
H1195       H  0.27595910  0.57433610  0.77319037     0.16470
O1196       O  0.33370451  0.58871313  0.71734286    -0.60450
H1197       H  0.28062579  0.72032537  0.72483419     0.16480
O1198       O  0.21903250  0.70447930  0.77239099    -0.60550
H1199       H  0.19588780  0.70462101  0.75031905     0.43480
H1200       H  0.35427413  0.58684827  0.74156995     0.43430
C1201       C  0.20513992  0.65130992  0.61173146    -0.05630
C1202       C  0.23834955  0.62599452  0.60003104    -0.33060
C1203       C  0.28044939  0.64021900  0.61096909     0.36190
C1204       C  0.28846995  0.67995099  0.63266861    -0.05990
C1205       C  0.25467334  0.70411123  0.64293508    -0.32960
C1206       C  0.21413972  0.69060427  0.63360230     0.36100
H1207       H  0.23162087  0.59508758  0.58427626     0.16470
O1208       O  0.31304919  0.61492418  0.60173296    -0.60450
H1209       H  0.25839703  0.73228145  0.66278505     0.16480
O1210       O  0.18344293  0.71414095  0.65094366    -0.60550
H1211       H  0.18296057  0.74035763  0.63492662     0.43480
H1212       H  0.31619618  0.59668910  0.62615777     0.43430
C1213       C  0.42997597  0.75434920  0.73215819    -0.05630
C1214       C  0.47229149  0.76407223  0.72340633    -0.33060
C1215       C  0.49649522  0.79470432  0.74867748     0.36190
C1216       C  0.47866518  0.81414707  0.78396300    -0.05990
C1217       C  0.43719712  0.80298580  0.79342998    -0.32960
C1218       C  0.41231454  0.77437964  0.76736712     0.36100
H1219       H  0.48563448  0.74973070  0.69569579     0.16470
O1220       O  0.53683663  0.80571579  0.73819158    -0.60450
H1221       H  0.42287902  0.81949332  0.81945643     0.16480
O1222       O  0.36908987  0.77307312  0.77067302    -0.60550
H1223       H  0.36311500  0.77884202  0.80076500     0.43480
H1224       H  0.53369976  0.82738502  0.71678552     0.43430
C1225       C  0.41563759  0.86582848  0.61014752    -0.05630
C1226       C  0.40209139  0.86527559  0.65121522    -0.33060
C1227       C  0.39859545  0.82788375  0.67192207     0.36190
C1228       C  0.40654239  0.78911019  0.65046238    -0.05990
C1229       C  0.42108804  0.78979213  0.60918538    -0.32960
C1230       C  0.42589151  0.82812579  0.58897828     0.36100
H1231       H  0.39424347  0.89455511  0.66764097     0.16470
O1232       O  0.38207684  0.82948692  0.71096215    -0.60450
H1233       H  0.42633445  0.76028383  0.59187400     0.16480
O1234       O  0.44020388  0.82842738  0.54889479    -0.60550
H1235       H  0.41434116  0.82530860  0.53000180     0.43480
H1236       H  0.40074414  0.85006343  0.72865732     0.43430
C1237       C  0.41947819  0.64062720  0.83109811    -0.05630
C1238       C  0.38276585  0.66281353  0.82925338    -0.33060
C1239       C  0.36873445  0.67988656  0.79228058     0.36190
C1240       C  0.39172469  0.67431661  0.75540202    -0.05990
C1241       C  0.42915318  0.65209694  0.75735989    -0.32960
C1242       C  0.44349051  0.63565822  0.79536790     0.36100
H1243       H  0.36550205  0.66845479  0.85758691     0.16470
O1244       O  0.33454351  0.70475724  0.79362209    -0.60450
H1245       H  0.44748355  0.64818205  0.72957359     0.16480
O1246       O  0.48053401  0.61502167  0.79733416    -0.60550
H1247       H  0.50295929  0.63758710  0.80448598     0.43480
H1248       H  0.31394060  0.69158647  0.81241355     0.43430
C1249       C  0.25226098  0.81682942  0.61002994    -0.05630
C1250       C  0.26884452  0.79147598  0.57775271    -0.33060
C1251       C  0.30329861  0.76639657  0.58652274     0.36190
C1252       C  0.32114617  0.76677403  0.62789627    -0.05990
C1253       C  0.30545434  0.79401053  0.65926101    -0.32960
C1254       C  0.27137767  0.81865526  0.65062480     0.36100
H1255       H  0.25513365  0.79131927  0.54587999     0.16470
O1256       O  0.31751837  0.73991841  0.55543403    -0.60450
H1257       H  0.31612610  0.79205416  0.69187184     0.16480
O1258       O  0.25629583  0.84386003  0.68234315    -0.60550
H1259       H  0.23398929  0.82595563  0.69490344     0.43480
H1260       H  0.34223094  0.75567415  0.54445040     0.43430
C1261       C  0.24899473  0.83746569  0.33452054    -0.05630
C1262       C  0.21832443  0.85121846  0.30544768    -0.33060
C1263       C  0.18254131  0.87008727  0.31936089     0.36190
C1264       C  0.17703031  0.87421991  0.36254566    -0.05990
C1265       C  0.20648347  0.85852042  0.39162013    -0.32960
C1266       C  0.24281645  0.84074401  0.37777731     0.36100
H1267       H  0.22194413  0.84698717  0.27187950     0.16470
O1268       O  0.15408038  0.88558090  0.29093185    -0.60450
H1269       H  0.20215910  0.86216281  0.42525563     0.16480
O1270       O  0.27216575  0.82711915  0.40647816    -0.60550
H1271       H  0.29200622  0.85203907  0.41326641     0.43480
H1272       H  0.13274704  0.86187643  0.28428453     0.43430
C1273       C  0.81157287  0.47458815  0.78691340    -0.05630
C1274       C  0.78244758  0.49953703  0.76607900    -0.33060
C1275       C  0.75376337  0.48080145  0.73472810     0.36190
C1276       C  0.75472708  0.43711103  0.72431589    -0.05990
C1277       C  0.78412009  0.41293846  0.74550661    -0.32960
C1278       C  0.81267560  0.43126662  0.77600837     0.36100
H1279       H  0.78173805  0.53314800  0.77441531     0.16470
O1280       O  0.72470399  0.50492505  0.71512092    -0.60450
H1281       H  0.78185302  0.37876043  0.74147892     0.16480
O1282       O  0.83991505  0.40610107  0.79695287    -0.60550
H1283       H  0.86464019  0.40422193  0.77898565     0.43480
H1284       H  0.70152821  0.50729698  0.73495704     0.43430
C1285       C  0.80891554  0.82436071  0.46621958    -0.05630
C1286       C  0.80624514  0.83503463  0.42405800    -0.33060
C1287       C  0.78257883  0.80944796  0.39447221     0.36190
C1288       C  0.75899709  0.77386380  0.40747829    -0.05990
C1289       C  0.75987410  0.76410019  0.45006327    -0.32960
C1290       C  0.78509431  0.78944166  0.47961324     0.36100
H1291       H  0.82530903  0.86165836  0.41347397     0.16470
O1292       O  0.78581242  0.81658204  0.35232374    -0.60450
H1293       H  0.74213162  0.73637359  0.45998070     0.16480
O1294       O  0.78695539  0.77968368  0.52101615    -0.60550
H1295       H  0.75877707  0.78608508  0.53132654     0.43480
H1296       H  0.81630812  0.82094049  0.34697828     0.43430
C1297       C  0.31622558  0.88558941  0.29608630    -0.05630
C1298       C  0.29147363  0.91266481  0.27247291    -0.33060
C1299       C  0.29990526  0.95655586  0.27681177     0.36190
C1300       C  0.33392950  0.97237934  0.30356582    -0.05990
C1301       C  0.35893325  0.94396573  0.32542737    -0.32960
C1302       C  0.34956665  0.90146513  0.32278616     0.36100
H1303       H  0.26631267  0.90007164  0.25065584     0.16470
O1304       O  0.27492903  0.98342132  0.25543532    -0.60450
H1305       H  0.38556131  0.95380233  0.34612680     0.16480
O1306       O  0.37429294  0.87517806  0.34545741    -0.60550
H1307       H  0.36014014  0.87188939  0.37243448     0.43480
H1308       H  0.28957329  0.98881097  0.22909972     0.43430
C1309       C  0.96100508  0.31728311  0.29122478    -0.05630
C1310       C  0.98541572  0.30062957  0.25927067    -0.33060
C1311       C  0.96804928  0.26807383  0.23131153     0.36190
C1312       C  0.92588505  0.25335620  0.23522119    -0.05990
C1313       C  0.90283480  0.26919885  0.26864830    -0.32960
C1314       C  0.92023741  0.30012083  0.29708064     0.36100
H1315       H  0.01724446  0.31351871  0.25545057     0.16470
O1316       O  0.99147508  0.25200737  0.19956119    -0.60450
H1317       H  0.86937559  0.26191804  0.26942336     0.16480
O1318       O  0.89540263  0.31716045  0.32725140    -0.60550
H1319       H  0.89467487  0.29634404  0.34969513     0.43480
H1320       H  0.99659044  0.27570763  0.18068240     0.43430
C1321       C  0.29461489  0.34523566  0.83874553    -0.05630
C1322       C  0.30406120  0.34406937  0.88155138    -0.33060
C1323       C  0.34121949  0.36368008  0.89798999     0.36190
C1324       C  0.36746783  0.38737746  0.87159210    -0.05990
C1325       C  0.35389618  0.39468962  0.83045136    -0.32960
C1326       C  0.31733648  0.37297289  0.81335857     0.36100
H1327       H  0.28637486  0.32254312  0.90072687     0.16470
O1328       O  0.35278952  0.35760623  0.93932619    -0.60450
H1329       H  0.37234383  0.41572788  0.81147984     0.16480
O1330       O  0.30498309  0.37627925  0.77156544    -0.60550
H1331       H  0.33099904  0.37930417  0.75546589     0.43480
H1332       H  0.33294751  0.37378443  0.95633683     0.43430
C1333       C  0.78683549  0.77930747  0.65650144    -0.05630
C1334       C  0.77626576  0.80349953  0.62187426    -0.33060
C1335       C  0.80263676  0.83764753  0.61086387     0.36190
C1336       C  0.84128372  0.84738140  0.63365280    -0.05990
C1337       C  0.85242596  0.82277732  0.66764565    -0.32960
C1338       C  0.82552477  0.78927335  0.67934117     0.36100
H1339       H  0.74642465  0.79689615  0.60431758     0.16470
O1340       O  0.79065741  0.86078300  0.57729842    -0.60450
H1341       H  0.88186964  0.83012269  0.68580421     0.16480
O1342       O  0.83569249  0.76884929  0.71525961    -0.60550
H1343       H  0.86227548  0.75475462  0.70950667     0.43480
H1344       H  0.76853580  0.87917222  0.58782838     0.43430
C1345       C  0.78582003  0.69144311  0.76114889    -0.05630
C1346       C  0.82697805  0.68187263  0.74973885    -0.33060
C1347       C  0.85798434  0.67043746  0.77892204     0.36190
C1348       C  0.85154380  0.67515903  0.82247533    -0.05990
C1349       C  0.81343734  0.69178616  0.83464762    -0.32960
C1350       C  0.78006634  0.69728940  0.80535210     0.36100
H1351       H  0.83665087  0.68300431  0.71794281     0.16470
O1352       O  0.89305288  0.65214533  0.76379326    -0.60450
H1353       H  0.80831877  0.69932359  0.86755156     0.16480
O1354       O  0.74306668  0.71073557  0.82100042    -0.60550
H1355       H  0.73403556  0.68977049  0.84158845     0.43480
H1356       H  0.90943417  0.67519063  0.75056740     0.43430
C1357       C  0.68631158  0.78428027  0.76056335    -0.05630
C1358       C  0.64887970  0.80525911  0.75256827    -0.33060
C1359       C  0.63821355  0.83949921  0.77873340     0.36190
C1360       C  0.66473803  0.85319008  0.81395541    -0.05990
C1361       C  0.70278627  0.83357470  0.82127310    -0.32960
C1362       C  0.71453700  0.80082010  0.79374749     0.36100
H1363       H  0.62853097  0.79595178  0.72505520     0.16470
O1364       O  0.60203909  0.85985948  0.76928140    -0.60450
H1365       H  0.72417481  0.84487279  0.84741350     0.16480
O1366       O  0.75504880  0.78770247  0.79752105    -0.60550
H1367       H  0.77176819  0.80552492  0.77874740     0.43480
H1368       H  0.58309346  0.85374347  0.79247978     0.43430
C1369       C  0.66951414  0.87666684  0.63786719    -0.05630
C1370       C  0.70245238  0.88332931  0.66869971    -0.33060
C1371       C  0.71941752  0.84903068  0.68791411     0.36190
C1372       C  0.70313961  0.80795223  0.67592325    -0.05990
C1373       C  0.66978348  0.80135109  0.64543893    -0.32960
C1374       C  0.65264278  0.83578099  0.62645805     0.36100
H1375       H  0.71480688  0.91522358  0.67788252     0.16470
O1376       O  0.75139677  0.85566899  0.71841241    -0.60450
H1377       H  0.65728779  0.76947507  0.63643872     0.16480
O1378       O  0.61999589  0.82934356  0.59665941    -0.60550
H1379       H  0.59386687  0.83072298  0.61265050     0.43480
H1380       H  0.77657974  0.86554913  0.70342199     0.43430
C1381       C  0.85099436  0.64009419  0.62209059    -0.05630
C1382       C  0.82841885  0.66887263  0.59855779    -0.33060
C1383       C  0.79375416  0.68798299  0.61572475     0.36190
C1384       C  0.78237506  0.67802285  0.65649807    -0.05990
C1385       C  0.79224890  0.63731622  0.66890545    -0.32960
C1386       C  0.82769339  0.61846591  0.65251724     0.36100
H1387       H  0.83840764  0.67862076  0.56825518     0.16470
O1388       O  0.76996943  0.71394098  0.59200040    -0.60450
H1389       H  0.77709737  0.62321547  0.69517087     0.16480
O1390       O  0.83819979  0.57925067  0.66537680    -0.60550
H1391       H  0.84122248  0.58175214  0.69665806     0.43480
H1392       H  0.79054277  0.73227688  0.57772712     0.43430
C1393       C  0.64443825  0.64306096  0.82704217    -0.05630
C1394       C  0.62199810  0.67246965  0.80413795    -0.33060
C1395       C  0.64064404  0.69215471  0.77042735     0.36190
C1396       C  0.68202484  0.68215489  0.76046665    -0.05990
C1397       C  0.69532691  0.64236933  0.77243935    -0.32960
C1398       C  0.67598100  0.62209584  0.80509846     0.36100
H1399       H  0.59130591  0.68203449  0.81330082     0.16470
O1400       O  0.61768490  0.71819225  0.74575588    -0.60450
H1401       H  0.72261426  0.62845251  0.75916304     0.16480
O1402       O  0.68878189  0.58283746  0.81511978    -0.60550
H1403       H  0.66647993  0.56241447  0.80238577     0.43480
H1404       H  0.59960696  0.73449577  0.76467334     0.43430
loop_ 
_geom_bond_atom_site_label_1 
_geom_bond_atom_site_label_2 
_geom_bond_distance 
_geom_bond_site_symmetry_2 
_ccdc_geom_bond_type 
C1            C2   1.416       .  A
C1            C6   1.424       .  A
C1         C1393   1.506       .  S
C2            C3   1.392       .  A
C2            H7   1.073       .  S
C3            C4   1.405       .  A
C3          C378   1.484       .  S
C4            C5   1.407       .  A
C4            H8   1.079       .  S
C5            C6   1.398       .  A
C5          C421   1.492       .  S
C6            H9   1.078       .  S
C10          C11   1.427       .  A
C10          C15   1.417       .  A
C10        C1381   1.510       .  S
C11          C12   1.399       .  A
C11          H16   1.078       .  S
C12          C13   1.404       .  A
C12         C142   1.492       .  S
C13          C14   1.404       .  A
C13          H17   1.078   1_655  S
C14          C15   1.396       .  A
C14         C185   1.484       .  S
C15          H18   1.073       .  S
C19          C20   1.392       .  A
C19          C24   1.394       .  A
C19        C1369   1.444       .  S
C20          C21   1.390       .  A
C20          H25   1.085       .  S
C21          C22   1.420       .  A
C21         C596   1.481   1_565  S
C22          C23   1.418       .  A
C22          H26   1.082   1_565  S
C23          C24   1.395       .  A
C23         C639   1.486   1_565  S
C24          H27   1.085       .  S
C28          C29   1.413       .  A
C28          C33   1.412       .  A
C28        C1396   1.500       .  S
C29          C30   1.399       .  A
C29        C1357   1.494       .  S
C30          C31   1.405       .  A
C30        C1372   1.458       .  S
C31          C32   1.415       .  A
C31        C1333   1.495       .  S
C32          C33   1.417       .  A
C32        C1384   1.507       .  S
C33        C1345   1.533       .  S
C34          C35   1.386       .  A
C34          C39   1.398       .  A
C34        C1324   1.441       .  S
C35          C36   1.383       .  A
C35          H40   1.087       .  S
C36          C37   1.419       .  A
C36         C293   1.475       .  S
C37          C38   1.420       .  A
C37          H41   1.061   1_556  S
C38          C39   1.395       .  A
C38         C521   1.483       .  S
C39          H42   1.085       .  S
C43          C44   1.383       .  A
C43          C48   1.371       .  A
C43        C1309   1.450       .  S
C44          C45   1.406       .  A
C44          H49   1.084       .  S
C45          C46   1.440       .  A
C45         C303   1.504       .  S
C46          C47   1.435       .  A
C46          H50   1.082   1_655  S
C47          C48   1.394       .  A
C47         C749   1.501       .  S
C48          H51   1.085       .  S
C52          C53   1.383       .  A
C52          C57   1.384       .  A
C52        C1300   1.465   1_545  S
C53          C54   1.407       .  A
C53          H58   1.084       .  S
C54          C55   1.437       .  A
C54         C701   1.497       .  S
C55          C56   1.438       .  A
C55          H59   1.082       .  S
C56          C57   1.408       .  A
C56         C511   1.498       .  S
C57          H60   1.084       .  S
C61          C62   1.387       .  A
C61          C66   1.381       .  A
C61        C1285   1.455       .  S
C62          C63   1.404       .  A
C62          H67   1.084       .  S
C63          C64   1.435       .  A
C63         C143   1.502       .  S
C64          C65   1.431       .  A
C64          H68   1.082       .  S
C65          C66   1.399       .  A
C65         C640   1.500       .  S
C66          H69   1.085       .  S
C70          C71   1.404       .  A
C70          C75   1.438       .  A
C70         C140   1.516       .  S
C71          C72   1.387       .  A
C71          H76   1.084       .  S
C72          C73   1.393       .  A
C72        C1336   1.482       .  S
C73          C74   1.410       .  A
C73          H77   1.083       .  S
C74          C75   1.440       .  A
C74         C642   1.517       .  S
C75          H78   1.082       .  S
C79          C80   1.383       .  A
C79          C84   1.378       .  A
C79        C1273   1.463       .  S
C80          C81   1.410       .  A
C80          H85   1.084       .  S
C81          C82   1.428       .  A
C81         C379   1.495       .  S
C82          C83   1.426       .  A
C82          H86   1.082       .  S
C83          C84   1.406       .  A
C83         C186   1.495       .  S
C84          H87   1.084       .  S
C88          C89   1.427       .  A
C88          C93   1.404       .  A
C88         C376   1.504       .  S
C89          C90   1.428       .  A
C89          H94   1.082       .  S
C90          C91   1.402       .  A
C90         C188   1.500       .  S
C91          C92   1.395       .  A
C91          H95   1.080       .  S
C92          C93   1.397       .  A
C92        C1348   1.498       .  S
C93          H96   1.079       .  S
C97          C98   1.431       .  A
C97         C102   1.393       .  A
C97         C124   1.493       .  S
C98          C99   1.425       .  A
C98         H103   1.081       .  S
C99         C100   1.392       .  A
C99         C703   1.500       .  S
C100        C101   1.394       .  A
C100        H104   1.085       .  S
C101        C102   1.392       .  A
C101       C1264   1.446       .  S
C102        H105   1.085       .  S
C106        C107   1.409       .  A
C106        C111   1.431       .  A
C106        C126   1.512       .  S
C107        C108   1.409       .  A
C107        H112   1.082       .  S
C108        C109   1.391       .  A
C108       C1249   1.464       .  S
C109        C110   1.384       .  A
C109        H113   1.086       .  S
C110        C111   1.428       .  A
C110        C719   1.486       .  S
C111        H114   1.082       .  S
O115        C123   1.248       .  A
O115       Co135   1.999       .  S
O116        C124   1.291       .  A
O116       Co136   2.071       .  S
O117        C125   1.263       .  A
O117       Co137   1.953       .  S
O118        C126   1.264       .  A
O118       Co138   1.959       .  S
O119        C125   1.277       .  A
O119       Co136   2.064       .  S
O120        C126   1.291       .  A
O120       Co135   2.115       .  S
O121        C124   1.276       .  A
O121       Co138   1.986       .  S
O122        C123   1.250       .  A
O122       Co137   1.941       .  S
C123        C172   1.483       .  S
C125        C244   1.507       .  S
O127        C140   1.295       .  A
O127       Co135   2.080   1_655  S
O128        C141   1.271       .  A
O128       Co136   2.007   1_655  S
O129        C142   1.279   1_455  A
O129       Co137   2.035       .  S
O130        C143   1.250       .  A
O130       Co138   2.008   1_655  S
O131        C143   1.263       .  A
O131       Co136   2.001   1_655  S
O132        C142   1.280       .  A
O132       Co135   2.000   1_655  S
O133        C140   1.269   1_455  A
O133       Co138   1.965       .  S
O134        C141   1.257   1_455  A
O134       Co137   2.011       .  S
Co135       O139   2.170       .  S
Co136       O139   2.085       .  S
Co137       O139   2.087       .  S
Co138       O139   2.030       .  S
C141        C391   1.490       .  S
C144        C145   1.394       .  A
C144        C149   1.423       .  A
C144        C274   1.499       .  S
C145        C146   1.403       .  A
C145        H150   1.085       .  S
C146        C147   1.400       .  A
C146       C1237   1.452       .  S
C147        C148   1.395       .  A
C147        H151   1.085       .  S
C148        C149   1.418       .  A
C148        C423   1.494       .  S
C149        H152   1.077       .  S
C153        C154   1.404       .  A
C153        C158   1.431       .  A
C153        C720   1.510       .  S
C154        C155   1.407       .  A
C154        H159   1.084       .  S
C155        C156   1.397       .  A
C155       C1225   1.455       .  S
C156        C157   1.383       .  A
C156        H160   1.086       .  S
C157        C158   1.419       .  A
C157        C595   1.499   1_565  S
C158        H161   1.076   1_565  S
C162        C163   1.407       .  A
C162        C167   1.415       .  A
C162       C1252   1.495       .  S
C163        C164   1.414       .  A
C163       C1228   1.486       .  S
C164        C165   1.417       .  A
C164       C1213   1.480       .  S
C165        C166   1.413       .  A
C165       C1240   1.489       .  S
C166        C167   1.415       .  A
C166       C1192   1.490       .  S
C167       C1204   1.480       .  S
C168        C169   1.401       .  A
C168        C173   1.401       .  A
C168       C1201   1.455       .  S
C169        C170   1.400       .  A
C169        H174   1.084       .  S
C170        C171   1.415       .  A
C170        C204   1.481       .  S
C171        C172   1.411       .  A
C171        H175   1.083       .  S
C172        C173   1.401       .  A
C173        H176   1.085       .  S
O177        C185   1.275       .  A
O177       Co197   1.990   1_655  S
O178        C186   1.249       .  A
O178       Co198   1.956   1_655  S
O179        C187   1.255   1_455  A
O179       Co199   1.996       .  S
O180        C188   1.265   1_455  A
O180       Co200   1.953       .  S
O181        C187   1.271       .  A
O181       Co198   2.020   1_655  S
O182        C188   1.293       .  A
O182       Co197   2.079   1_655  S
O183        C186   1.253       .  A
O183       Co200   2.040   1_655  S
O184        C185   1.275   1_455  A
O184       Co199   2.028       .  S
C187        C609   1.498       .  S
O189        C202   1.286       .  A
O189       Co197   2.092       .  S
O190        C203   1.271       .  A
O190       Co198   2.001       .  S
O191        C204   1.257       .  A
O191       Co199   1.959       .  S
O192        C205   1.269       .  A
O192       Co200   1.968       .  S
O193        C205   1.296       .  A
O193       Co198   2.102       .  S
O194        C204   1.254       .  A
O194       Co197   1.988       .  S
O195        C202   1.263       .  A
O195       Co200   1.960       .  S
O196        C203   1.273       .  A
O196       Co199   1.978       .  S
Co197       O201   2.163       .  S
Co198       O201   2.047       .  S
Co199       O201   2.128       .  S
Co200       O201   2.041       .  S
C202        C219   1.496       .  S
C203        C760   1.489       .  S
C205        C206   1.503       .  S
C206        C207   1.432       .  A
C206        C211   1.389       .  A
C207        C208   1.425       .  A
C207        H212   1.079       .  S
C208        C209   1.390       .  A
C208        C292   1.505       .  S
C209        C210   1.403       .  A
C209        H213   1.085       .  S
C210        C211   1.400       .  A
C210       C1177   1.446       .  S
C211        H214   1.085       .  S
C215        C216   1.399       .  A
C215        C220   1.396       .  A
C215       C1189   1.465       .  S
C216        C217   1.398       .  A
C216        H221   1.085       .  S
C217        C218   1.429       .  A
C217        C276   1.493       .  S
C218        C219   1.428       .  A
C218        H222   1.082       .  S
C219        C220   1.395       .  A
C220        H223   1.084       .  S
C224        C225   1.390       .  A
C224        C229   1.384       .  A
C224       C1216   1.466       .  S
C225        C226   1.411       .  A
C225        H230   1.084       .  S
C226        C227   1.439       .  A
C226        C597   1.515       .  S
C227        C228   1.436       .  A
C227        H231   1.082       .  S
C228        C229   1.402       .  A
C228        C422   1.513       .  S
C229        H232   1.085       .  S
C233        C234   1.406       .  A
C233        C238   1.431       .  A
C233        C424   1.504       .  S
C234        C235   1.388       .  A
C234        H239   1.084       .  S
C235        C236   1.392       .  A
C235       C1360   1.477       .  S
C236        C237   1.408       .  A
C236        H240   1.084       .  S
C237        C238   1.432       .  A
C237        C594   1.506       .  S
C238        H241   1.082       .  S
C242        C243   1.436       .  A
C242        C247   1.397       .  A
C242        C320   1.495       .  S
C243        C244   1.430       .  A
C243        H248   1.081       .  S
C244        C245   1.402       .  A
C245        C246   1.396       .  A
C245        H249   1.085       .  S
C246        C247   1.396       .  A
C246       C1165   1.450       .  S
C247        H250   1.084       .  S
C251        C252   1.398       .  A
C251        C256   1.400       .  A
C251       C1297   1.443       .  S
C252        C253   1.401       .  A
C252       C1261   1.462       .  S
C253        C254   1.384       .  A
C253       C1168   1.451       .  S
C254        C255   1.388       .  A
C254       C1129   1.480       .  S
C255        C256   1.404       .  A
C255       C1144   1.450       .  S
C256       C1156   1.473       .  S
C257        C258   1.438       .  A
C257        C262   1.391       .  A
C257        C277   1.493       .  S
C258        C259   1.430       .  A
C258        H263   1.080       .  S
C259        C260   1.397       .  A
C259        C439   1.506       .  S
C260        C261   1.394       .  A
C260        H264   1.085       .  S
C261        C262   1.393       .  A
C261       C1141   1.441       .  S
C262        H265   1.085       .  S
O266        C274   1.283       .  A
O266       Co286   2.028   1_556  S
O267        C275   1.270       .  A
O267       Co287   1.994       .  S
O268        C276   1.272       .  A
O268       Co288   2.012       .  S
O269        C277   1.296       .  A
O269       Co289   2.130       .  S
O270        C276   1.274       .  A
O270       Co287   1.986   1_556  S
O271        C277   1.253       .  A
O271       Co286   1.932       .  S
O272        C275   1.257       .  A
O272       Co289   2.000       .  S
O273        C274   1.288       .  A
O273       Co288   2.071       .  S
C275        C789   1.496       .  S
O278        C291   1.275       .  A
O278       Co286   1.988       .  S
O279        C292   1.263       .  A
O279       Co287   2.006   1_556  S
O280        C293   1.271       .  A
O280       Co288   2.032       .  S
O281        C294   1.279       .  A
O281       Co289   2.001       .  S
O282        C294   1.267       .  A
O282       Co287   2.006       .  S
O283        C293   1.238       .  A
O283       Co286   1.966   1_556  S
O284        C291   1.295       .  A
O284       Co289   2.080       .  S
O285        C292   1.282       .  A
O285       Co288   2.026       .  S
Co286       O290   1.987       .  S
Co287       O290   2.128       .  S
Co288       O290   2.086   1_556  S
Co289       O290   2.157       .  S
C291        C800   1.525       .  S
C294        C326   1.484       .  S
O295        C303   1.249   1_455  A
O295       Co315   2.029       .  S
O296        C304   1.267       .  A
O296       Co316   2.009       .  S
O297        C305   1.264       .  A
O297       Co317   1.990       .  S
O298        C306   1.294       .  A
O298       Co318   2.069       .  S
O299        C305   1.262       .  A
O299       Co316   2.019   1_655  S
O300        C306   1.270       .  A
O300       Co315   1.965       .  S
O301        C304   1.277       .  A
O301       Co318   1.999       .  S
O302        C303   1.260       .  A
O302       Co317   1.996       .  S
C304        C328   1.486       .  S
C305        C335   1.487       .  S
C306        C818   1.505       .  S
O307        C320   1.258       .  A
O307       Co315   1.943       .  S
O308        C321   1.266       .  A
O308       Co316   1.963   1_655  S
O309        C322   1.291       .  A
O309       Co317   2.095       .  S
O310        C323   1.259       .  A
O310       Co318   2.017       .  S
O311        C323   1.264       .  A
O311       Co316   1.982       .  S
O312        C322   1.275   1_455  A
O312       Co315   1.995       .  S
O313        C320   1.295       .  A
O313       Co318   2.119       .  S
O314        C321   1.275       .  A
O314       Co317   2.025       .  S
Co315       O319   1.998       .  S
Co316       O319   2.133       .  S
Co317       O319   2.072   1_655  S
Co318       O319   2.158       .  S
C321        C344   1.481       .  S
C322        C389   1.505       .  S
C323        C791   1.500       .  S
C324        C325   1.395       .  A
C324        C329   1.396       .  A
C324       C1117   1.437       .  S
C325        C326   1.386       .  A
C325        H330   1.085       .  S
C326        C327   1.418       .  A
C327        C328   1.419       .  A
C327        H331   1.080       .  S
C328        C329   1.391       .  A
C329        H332   1.085       .  S
C333        C334   1.423       .  A
C333        C338   1.404       .  A
C333        C360   1.501       .  S
C334        C335   1.406       .  A
C334        H339   1.073       .  S
C335        C336   1.387       .  A
C336        C337   1.401       .  A
C336        H340   1.086       .  S
C337        C338   1.410       .  A
C337       C1105   1.459       .  S
C338        H341   1.084       .  S
C342        C343   1.390       .  A
C342        C347   1.407       .  A
C342       C1093   1.455       .  S
C343        C344   1.379       .  A
C343        H348   1.087       .  S
C344        C345   1.426       .  A
C345        C346   1.429       .  A
C345        H349   1.079       .  S
C346        C347   1.405       .  A
C346        C362   1.509       .  S
C347        H350   1.084       .  S
O351        C359   1.250       .  A
O351       Co371   1.987       .  S
O352        C360   1.291       .  A
O352       Co372   2.090   1_554  S
O353        C361   1.272       .  A
O353       Co373   1.978       .  S
O354        C362   1.265       .  A
O354       Co374   1.961       .  S
O355        C361   1.274       .  A
O355       Co372   2.015   1_554  S
O356        C362   1.289       .  A
O356       Co371   2.106       .  S
O357        C360   1.273       .  A
O357       Co374   1.969       .  S
O358        C359   1.258       .  A
O358       Co373   1.953       .  S
C359        C406   1.480       .  S
C361        C462   1.488       .  S
O363        C376   1.291       .  A
O363       Co371   2.070   1_556  S
O364        C377   1.263       .  A
O364       Co372   1.990       .  S
O365        C378   1.274   1_554  A
O365       Co373   2.026       .  S
O366        C379   1.253       .  A
O366       Co374   2.034   1_556  S
O367        C379   1.250       .  A
O367       Co372   1.964       .  S
O368        C378   1.276       .  A
O368       Co371   1.991   1_556  S
O369        C376   1.268       .  A
O369       Co374   1.961   1_556  S
O370        C377   1.255   1_554  A
O370       Co373   1.997       .  S
Co371       O375   2.164       .  S
Co372       O375   2.052   1_556  S
Co373       O375   2.122       .  S
Co374       O375   2.020       .  S
C377        C602   1.477       .  S
C380        C381   1.392       .  A
C380        C385   1.425       .  A
C380        C492   1.496       .  S
C381        C382   1.400       .  A
C381        H386   1.084       .  S
C382        C383   1.400       .  A
C382       C1084   1.441       .  S
C383        C384   1.387       .  A
C383        H387   1.086       .  S
C384        C385   1.419       .  A
C384        C641   1.492       .  S
C385        H388   1.079   1_565  S
C389        C390   1.429       .  A
C389        C394   1.400       .  A
C390        C391   1.414       .  A
C390        H395   1.074   1_655  S
C391        C392   1.382       .  A
C392        C393   1.398       .  A
C392        H396   1.087       .  S
C393        C394   1.408       .  A
C393       C1069   1.448       .  S
C394        H397   1.084       .  S
C398        C399   1.408       .  A
C398        C403   1.396       .  A
C398       C1081   1.467       .  S
C399        C400   1.408       .  A
C399       C1288   1.465       .  S
C400        C401   1.399       .  A
C400       C1072   1.468       .  S
C401        C402   1.396       .  A
C401       C1096   1.482       .  S
C402        C403   1.397       .  A
C402       C1060   1.453       .  S
C403       C1045   1.485       .  S
C404        C405   1.393       .  A
C404        C409   1.397       .  A
C404       C1057   1.445       .  S
C405        C406   1.394       .  A
C405        H410   1.085       .  S
C406        C407   1.418       .  A
C407        C408   1.417       .  A
C407        H411   1.083       .  S
C408        C409   1.398       .  A
C408        C440   1.481       .  S
C409        H412   1.084       .  S
O413        C421   1.280       .  A
O413       Co433   2.003       .  S
O414        C422   1.261       .  A
O414       Co434   1.991       .  S
O415        C423   1.264   1_554  A
O415       Co435   2.025       .  S
O416        C424   1.271       .  A
O416       Co436   1.954       .  S
O417        C423   1.269       .  A
O417       Co434   1.998       .  S
O418        C424   1.294       .  A
O418       Co433   2.073       .  S
O419        C422   1.252       .  A
O419       Co436   2.018       .  S
O420        C421   1.275       .  A
O420       Co435   2.024   1_556  S
O425        C438   1.290       .  A
O425       Co433   2.105   1_554  S
O426        C439   1.273       .  A
O426       Co434   2.062   1_554  S
O427        C440   1.253       .  A
O427       Co435   1.957       .  S
O428        C441   1.277       .  A
O428       Co436   1.992   1_554  S
O429        C441   1.291       .  A
O429       Co434   2.071   1_554  S
O430        C440   1.252       .  A
O430       Co433   2.000   1_554  S
O431        C438   1.263       .  A
O431       Co436   1.963   1_554  S
O432        C439   1.260       .  A
O432       Co435   1.950       .  S
Co433       O437   2.166   1_556  S
Co434       O437   2.085   1_556  S
Co435       O437   2.087       .  S
Co436       O437   2.030   1_556  S
C438        C453   1.510       .  S
C441        C442   1.498       .  S
C442        C443   1.397       .  A
C442        C447   1.435       .  A
C443        C444   1.394       .  A
C443        H448   1.085       .  S
C444        C445   1.391       .  A
C444       C1153   1.450       .  S
C445        C446   1.391       .  A
C445        H449   1.086       .  S
C446        C447   1.427       .  A
C446        C510   1.505       .  S
C447        H450   1.081       .  S
C451        C452   1.400       .  A
C451        C456   1.397       .  A
C451       C1048   1.459       .  S
C452        C453   1.401       .  A
C452        H457   1.084       .  S
C453        C454   1.434       .  A
C454        C455   1.433       .  A
C454        H458   1.081       .  S
C455        C456   1.389       .  A
C455        C494   1.498       .  S
C456        H459   1.085       .  S
C460        C461   1.435       .  A
C460        C465   1.408       .  A
C460        C538   1.517       .  S
C461        C462   1.432       .  A
C461        H466   1.081       .  S
C462        C463   1.381       .  A
C463        C464   1.388       .  A
C463        H467   1.087       .  S
C464        C465   1.408       .  A
C464       C1033   1.458       .  S
C465        H468   1.084       .  S
C469        C470   1.414       .  A
C469        C474   1.422       .  A
C469       C1312   1.474       .  S
C470        C471   1.401       .  A
C470       C1108   1.495       .  S
C471        C472   1.419       .  A
C471       C1036   1.488       .  S
C472        C473   1.411       .  A
C472       C1000   1.484       .  S
C473        C474   1.413       .  A
C473       C1009   1.503       .  S
C474       C1021   1.486       .  S
C475        C476   1.403       .  A
C475        C480   1.432       .  A
C475        C657   1.499       .  S
C476        C477   1.402       .  A
C476        H481   1.085       .  S
C477        C478   1.398       .  A
C477       C1012   1.473       .  S
C478        C479   1.394       .  A
C478        H482   1.083       .  S
C479        C480   1.430       .  A
C479        C495   1.500       .  S
C480        H483   1.082       .  S
O484        C492   1.276   1_545  A
O484       Co504   1.986       .  S
O485        C493   1.256       .  A
O485       Co505   1.960       .  S
O486        C494   1.276       .  A
O486       Co506   2.037       .  S
O487        C495   1.288       .  A
O487       Co507   2.099       .  S
O488        C494   1.268       .  A
O488       Co505   1.971   1_565  S
O489        C495   1.262       .  A
O489       Co504   1.958       .  S
O490        C493   1.256       .  A
O490       Co507   1.996       .  S
O491        C492   1.292       .  A
O491       Co506   2.079       .  S
C493        C780   1.485       .  S
O496        C509   1.269       .  A
O496       Co504   1.976       .  S
O497        C510   1.259       .  A
O497       Co505   2.018   1_565  S
O498        C511   1.258       .  A
O498       Co506   1.988   1_545  S
O499        C512   1.277       .  A
O499       Co507   1.989       .  S
O500        C512   1.270       .  A
O500       Co505   2.018       .  S
O501        C511   1.247       .  A
O501       Co504   2.008       .  S
O502        C509   1.297       .  A
O502       Co507   2.096       .  S
O503        C510   1.270       .  A
O503       Co506   1.999       .  S
Co504       O508   2.046       .  S
Co505       O508   2.141       .  S
Co506       O508   2.064   1_565  S
Co507       O508   2.161       .  S
C509        C807   1.529       .  S
C512        C544   1.481       .  S
O513        C521   1.245       .  A
O513       Co533   1.986   1_556  S
O514        C522   1.269       .  A
O514       Co534   2.014       .  S
O515        C523   1.278       .  A
O515       Co535   2.008       .  S
O516        C524   1.293       .  A
O516       Co536   2.085       .  S
O517        C523   1.257       .  A
O517       Co534   2.001   1_556  S
O518        C524   1.270       .  A
O518       Co533   1.981       .  S
O519        C522   1.277       .  A
O519       Co536   1.993       .  S
O520        C521   1.265       .  A
O520       Co535   2.018       .  S
C522        C546   1.480       .  S
C523        C553   1.497       .  S
C524        C798   1.527       .  S
O525        C538   1.264       .  A
O525       Co533   1.962       .  S
O526        C539   1.269       .  A
O526       Co534   1.976   1_556  S
O527        C540   1.288       .  A
O527       Co535   2.064       .  S
O528        C541   1.252       .  A
O528       Co536   1.994       .  S
O529        C541   1.258       .  A
O529       Co534   1.949       .  S
O530        C540   1.283       .  A
O530       Co533   2.001   1_556  S
O531        C538   1.292       .  A
O531       Co536   2.122       .  S
O532        C539   1.272       .  A
O532       Co535   2.016       .  S
Co533       O537   2.022       .  S
Co534       O537   2.135       .  S
Co535       O537   2.080   1_556  S
Co536       O537   2.171       .  S
C539        C562   1.489       .  S
C540        C598   1.492       .  S
C541        C782   1.487       .  S
C542        C543   1.395       .  A
C542        C547   1.396       .  A
C542        C988   1.438       .  S
C543        C544   1.388       .  A
C543        H548   1.085       .  S
C544        C545   1.415       .  A
C545        C546   1.417       .  A
C545        H549   1.079       .  S
C546        C547   1.390       .  A
C547        H550   1.085       .  S
C551        C552   1.436       .  A
C551        C556   1.399       .  A
C551        C578   1.506       .  S
C552        C553   1.428       .  A
C552        H557   1.080       .  S
C553        C554   1.379       .  A
C554        C555   1.387       .  A
C554        H558   1.086       .  S
C555        C556   1.401       .  A
C555        C973   1.444       .  S
C556        H559   1.084       .  S
C560        C561   1.391       .  A
C560        C565   1.406       .  A
C560        C961   1.463       .  S
C561        C562   1.386       .  A
C561        H566   1.086       .  S
C562        C563   1.430       .  A
C563        C564   1.433       .  A
C563        H567   1.082       .  S
C564        C565   1.407       .  A
C564        C580   1.511       .  S
C565        H568   1.083       .  S
O569        C577   1.248       .  A
O569       Co589   1.998       .  S
O570        C578   1.294       .  A
O570       Co590   2.089       .  S
O571        C579   1.259       .  A
O571       Co591   1.945       .  S
O572        C580   1.264       .  A
O572       Co592   1.965       .  S
O573        C579   1.273       .  A
O573       Co590   2.046       .  S
O574        C580   1.290       .  A
O574       Co589   2.109       .  S
O575        C578   1.276       .  A
O575       Co592   1.988       .  S
O576        C577   1.252       .  A
O576       Co591   1.944       .  S
C577        C624   1.485       .  S
C579        C678   1.490       .  S
O581        C594   1.292       .  A
O581       Co589   2.077   1_565  S
O582        C595   1.273   1_565  A
O582       Co590   2.007   1_565  S
O583        C596   1.272       .  A
O583       Co591   2.020       .  S
O584        C597   1.253   1_545  A
O584       Co592   2.021       .  S
O585        C597   1.260       .  A
O585       Co590   2.001   1_565  S
O586        C596   1.279   1_565  A
O586       Co589   1.986   1_565  S
O587        C594   1.267   1_545  A
O587       Co592   1.956       .  S
O588        C595   1.260       .  A
O588       Co591   2.021       .  S
Co589       O593   2.167       .  S
Co590       O593   2.081       .  S
Co591       O593   2.105       .  S
Co592       O593   2.033       .  S
C598        C599   1.402       .  A
C598        C603   1.418       .  A
C599        C600   1.404       .  A
C599        H604   1.084       .  S
C600        C601   1.396       .  A
C600        C949   1.452       .  S
C601        C602   1.386       .  A
C601        H605   1.086       .  S
C602        C603   1.408       .  A
C603        H606   1.077       .  S
C607        C608   1.428       .  A
C607        C612   1.391       .  A
C607        C730   1.501       .  S
C608        C609   1.422       .  A
C608        H613   1.078   1_655  S
C609        C610   1.391       .  A
C610        C611   1.401       .  A
C610        H614   1.085       .  S
C611        C612   1.401       .  A
C611        C940   1.444       .  S
C612        H615   1.085       .  S
C616        C617   1.414       .  A
C616        C621   1.410       .  A
C616        C952   1.484       .  S
C617        C618   1.414       .  A
C617       C1276   1.484       .  S
C618        C619   1.409       .  A
C618        C937   1.476       .  S
C619        C620   1.412       .  A
C619        C913   1.498       .  S
C620        C621   1.415       .  A
C620        C925   1.476       .  S
C621        C964   1.493       .  S
C622        C623   1.400       .  A
C622        C627   1.401       .  A
C622        C928   1.454       .  S
C623        C624   1.399       .  A
C623        H628   1.085       .  S
C624        C625   1.412       .  A
C625        C626   1.417       .  A
C625        H629   1.083       .  S
C626        C627   1.399       .  A
C626        C658   1.483       .  S
C627        H630   1.084       .  S
O631        C639   1.274   1_565  A
O631       Co651   1.976   1_565  S
O632        C640   1.259       .  A
O632       Co652   1.980   1_565  S
O633        C641   1.253   1_545  A
O633       Co653   1.984       .  S
O634        C642   1.270   1_545  A
O634       Co654   1.967       .  S
O635        C641   1.274       .  A
O635       Co652   2.021   1_565  S
O636        C642   1.294       .  A
O636       Co651   2.085   1_565  S
O637        C640   1.251       .  A
O637       Co654   2.025   1_565  S
O638        C639   1.277       .  A
O638       Co653   2.041       .  S
O643        C656   1.285       .  A
O643       Co651   2.090       .  S
O644        C657   1.272       .  A
O644       Co652   2.011       .  S
O645        C658   1.259       .  A
O645       Co653   1.964       .  S
O646        C659   1.274       .  A
O646       Co654   1.972       .  S
O647        C659   1.292       .  A
O647       Co652   2.077       .  S
O648        C658   1.254       .  A
O648       Co651   1.987       .  S
O649        C656   1.265       .  A
O649       Co654   1.967       .  S
O650        C657   1.276       .  A
O650       Co653   1.991       .  S
Co651       O655   2.158       .  S
Co652       O655   2.065       .  S
Co653       O655   2.129       .  S
Co654       O655   2.031       .  S
C656        C671   1.503       .  S
C659        C660   1.492       .  S
C660        C661   1.391       .  A
C660        C665   1.420       .  A
C661        C662   1.400       .  A
C661        H666   1.085       .  S
C662        C663   1.403       .  A
C662       C1024   1.450       .  S
C663        C664   1.395       .  A
C663        H667   1.085       .  S
C664        C665   1.416       .  A
C664        C748   1.493       .  S
C665        H668   1.079       .  S
C669        C670   1.404       .  A
C669        C674   1.398       .  A
C669        C916   1.472       .  S
C670        C671   1.404       .  A
C670        H675   1.083       .  S
C671        C672   1.426       .  A
C672        C673   1.426       .  A
C672        H676   1.082       .  S
C673        C674   1.396       .  A
C673        C732   1.489       .  S
C674        H677   1.085       .  S
C678        C679   1.428       .  A
C678        C683   1.390       .  A
C679        C680   1.432       .  A
C679        H684   1.076       .  S
C680        C681   1.394       .  A
C680        C718   1.497       .  S
C681        C682   1.395       .  A
C681        H685   1.084       .  S
C682        C683   1.390       .  A
C682        C904   1.446       .  S
C683        H686   1.086       .  S
C687        C688   1.387       .  A
C687        C692   1.377       .  A
C687       C1321   1.436       .  S
C688        C689   1.398       .  A
C688       C1180   1.453       .  S
C689        C690   1.408       .  A
C689        C889   1.457       .  S
C690        C691   1.401       .  A
C690        C877   1.468       .  S
C691        C692   1.373       .  A
C691        C901   1.448       .  S
C692        C976   1.459       .  S
O693        C701   1.246       .  A
O693       Co713   2.009       .  S
O694        C702   1.270       .  A
O694       Co714   2.017       .  S
O695        C703   1.271       .  A
O695       Co715   2.002       .  S
O696        C704   1.301       .  A
O696       Co716   2.093       .  S
O697        C703   1.258       .  A
O697       Co714   2.008   1_565  S
O698        C704   1.269       .  A
O698       Co713   1.975       .  S
O699        C702   1.281       .  A
O699       Co716   2.001       .  S
O700        C701   1.259       .  A
O700       Co715   1.994   1_545  S
C702        C753   1.488       .  S
C704        C809   1.525       .  S
O705        C718   1.261       .  A
O705       Co713   1.943       .  S
O706        C719   1.269       .  A
O706       Co714   1.972   1_565  S
O707        C720   1.292       .  A
O707       Co715   2.093       .  S
O708        C721   1.257       .  A
O708       Co716   2.018       .  S
O709        C721   1.260       .  A
O709       Co714   1.957       .  S
O710        C720   1.278   1_545  A
O710       Co713   2.001       .  S
O711        C718   1.294       .  A
O711       Co716   2.108       .  S
O712        C719   1.274       .  A
O712       Co715   2.019       .  S
Co713       O717   2.015       .  S
Co714       O717   2.135       .  S
Co715       O717   2.070   1_565  S
Co716       O717   2.173       .  S
C721        C771   1.500       .  S
O722        C730   1.272   1_455  A
O722       Co742   1.989       .  S
O723        C731   1.264       .  A
O723       Co743   1.974       .  S
O724        C732   1.271       .  A
O724       Co744   2.008       .  S
O725        C733   1.291       .  A
O725       Co745   2.097       .  S
O726        C732   1.273       .  A
O726       Co743   1.983   1_655  S
O727        C733   1.259       .  A
O727       Co742   1.944       .  S
O728        C731   1.259       .  A
O728       Co745   2.012       .  S
O729        C730   1.291       .  A
O729       Co744   2.088       .  S
C731        C769   1.503       .  S
C733        C764   1.486       .  S
O734        C747   1.268       .  A
O734       Co742   1.952       .  S
O735        C748   1.257       .  A
O735       Co743   1.995   1_655  S
O736        C749   1.257       .  A
O736       Co744   1.972       .  S
O737        C750   1.276       .  A
O737       Co745   1.993       .  S
O738        C750   1.270       .  A
O738       Co743   2.026       .  S
O739        C749   1.246   1_455  A
O739       Co742   2.033       .  S
O740        C747   1.293       .  A
O740       Co745   2.081       .  S
O741        C748   1.268       .  A
O741       Co744   2.010       .  S
Co742       O746   2.053       .  S
Co743       O746   2.147       .  S
Co744       O746   2.060   1_655  S
Co745       O746   2.149       .  S
C747        C816   1.506       .  S
C750        C755   1.489       .  S
C751        C752   1.396       .  A
C751        C756   1.396       .  A
C751        C868   1.441       .  S
C752        C753   1.389       .  A
C752        H757   1.085       .  S
C753        C754   1.422       .  A
C754        C755   1.420       .  A
C754        H758   1.078       .  S
C755        C756   1.390       .  A
C756        H759   1.085       .  S
C760        C761   1.391       .  A
C760        C765   1.435       .  A
C761        C762   1.391       .  A
C761        H766   1.086       .  S
C762        C763   1.383       .  A
C762        C892   1.431       .  S
C763        C764   1.382       .  A
C763        H767   1.084       .  S
C764        C765   1.434       .  A
C765        H768   1.082       .  S
C769        C770   1.432       .  A
C769        C774   1.404       .  A
C770        C771   1.430       .  A
C770        H775   1.083       .  S
C771        C772   1.400       .  A
C772        C773   1.396       .  A
C772        H776   1.085       .  S
C773        C774   1.407       .  A
C773        C880   1.460       .  S
C774        H777   1.084       .  S
C778        C779   1.403       .  A
C778        C783   1.400       .  A
C778        C997   1.460       .  S
C779        C780   1.401       .  A
C779        H784   1.084       .  S
C780        C781   1.416       .  A
C781        C782   1.413       .  A
C781        H785   1.083       .  S
C782        C783   1.399       .  A
C783        H786   1.085       .  S
C787        C788   1.397       .  A
C787        C792   1.399       .  A
C787       C1132   1.453       .  S
C788        C789   1.390       .  A
C788        H793   1.085       .  S
C789        C790   1.433       .  A
C790        C791   1.430       .  A
C790        H794   1.078       .  S
C791        C792   1.392       .  A
C792        H795   1.085       .  S
C796        C797   1.387       .  A
C796        C801   1.387       .  A
C796        C856   1.472       .  S
C797        C798   1.409       .  A
C797        H802   1.084       .  S
C798        C799   1.446       .  A
C799        C800   1.446       .  A
C799        H803   1.082       .  S
C800        C801   1.408       .  A
C801        H804   1.084       .  S
C805        C806   1.387       .  A
C805        C810   1.384       .  A
C805        C841   1.465       .  S
C806        C807   1.408       .  A
C806        H811   1.084       .  S
C807        C808   1.448       .  A
C808        C809   1.448       .  A
C808        H812   1.082       .  S
C809        C810   1.402       .  A
C810        H813   1.084       .  S
C814        C815   1.387       .  A
C814        C819   1.384       .  A
C814        C829   1.466       .  S
C815        C816   1.409       .  A
C815        H820   1.084       .  S
C816        C817   1.435       .  A
C817        C818   1.432       .  A
C817        H821   1.082       .  S
C818        C819   1.402       .  A
C819        H822   1.084       .  S
C823        C824   1.400       .  A
C823        C828   1.405       .  A
C823       C1120   1.456       .  S
C824        C825   1.397       .  A
C824        C853   1.489       .  S
C825        C826   1.401       .  A
C825        C985   1.455       .  S
C826        C827   1.401       .  A
C826        C844   1.480       .  S
C827        C828   1.404       .  A
C827        C865   1.460       .  S
C828        C832   1.485       .  S
C829        C830   1.405       .  A
C829        C834   1.399       .  A
C830        C831   1.407       .  A
C830        H835   1.083       .  S
C831        C832   1.406       .  A
C831        O836   1.372       .  S
C832        C833   1.404       .  A
C833        C834   1.385       .  A
C833        H837   1.082       .  S
C834        O838   1.372       .  S
O836        H840   0.992       .  S
O838        H839   0.992       .  S
C841        C842   1.407       .  A
C841        C846   1.397       .  A
C842        C843   1.403       .  A
C842        H847   1.081       .  S
C843        C844   1.403       .  A
C843        O848   1.371       .  S
C844        C845   1.403       .  A
C845        C846   1.387       .  A
C845        H849   1.081       .  S
C846        O850   1.372       .  S
O848        H852   0.992       .  S
O850        H851   0.992       .  S
C853        C854   1.401       .  A
C853        C858   1.413       .  A
C854        C855   1.405       .  A
C854        H859   1.083       .  S
C855        C856   1.410       .  A
C855        O860   1.371       .  S
C856        C857   1.393       .  A
C857        C858   1.395       .  A
C857        H861   1.084       .  S
C858        O862   1.375       .  S
O860        H864   0.992       .  S
O862        H863   0.992       .  S
C865        C866   1.402       .  A
C865        C870   1.405       .  A
C866        C867   1.392       .  A
C866        H871   1.084       .  S
C867        C868   1.399       .  A
C867        O872   1.371       .  S
C868        C869   1.395       .  A
C869        C870   1.381       .  A
C869        H873   1.085       .  S
C870        O874   1.372       .  S
O872        H876   0.992       .  S
O874        H875   0.992       .  S
C877        C878   1.410       .  A
C877        C882   1.405       .  A
C878        C879   1.398       .  A
C878        H883   1.084       .  S
C879        C880   1.397       .  A
C879        O884   1.370       .  S
C880        C881   1.401       .  A
C881        C882   1.364       .  A
C881        H885   1.076       .  S
C882        O886   1.375       .  S
O884        H888   0.992       .  S
O886        H887   0.992       .  S
C889        C890   1.397       .  A
C889        C894   1.400       .  A
C890        C891   1.356       .  A
C890        H895   1.084       .  S
C891        C892   1.397       .  A
C891        O896   1.375       .  S
C892        C893   1.403       .  A
C893        C894   1.399       .  A
C893        H897   1.083       .  S
C894        O898   1.371       .  S
O896        H900   0.992       .  S
O898        H899   0.992       .  S
C901        C902   1.381       .  A
C901        C906   1.415       .  A
C902        C903   1.372       .  A
C902        H907   1.084       .  S
C903        C904   1.420       .  A
C903        O908   1.370       .  S
C904        C905   1.389       .  A
C905        C906   1.387       .  A
C905        H909   1.084       .  S
C906        O910   1.369       .  S
O908        H912   0.993       .  S
O910        H911   0.992       .  S
C913        C914   1.408       .  A
C913        C918   1.405       .  A
C914        C915   1.388       .  A
C914        H919   1.081       .  S
C915        C916   1.397       .  A
C915        O920   1.372       .  S
C916        C917   1.410       .  A
C917        C918   1.407       .  A
C917        H921   1.083       .  S
C918        O922   1.370       .  S
O920        H924   0.992       .  S
O922        H923   0.992       .  S
C925        C926   1.388       .  A
C925        C930   1.409       .  A
C926        C927   1.352       .  A
C926        H931   1.066       .  S
C927        C928   1.404       .  A
C927        O932   1.373       .  S
C928        C929   1.403       .  A
C929        C930   1.407       .  A
C929        H933   1.083       .  S
C930        O934   1.370       .  S
O932        H936   0.992       .  S
O934        H935   0.992       .  S
C937        C938   1.405       .  A
C937        C942   1.412       .  A
C938        C939   1.398       .  A
C938        H943   1.084       .  S
C939        C940   1.400       .  A
C939        O944   1.371       .  S
C940        C941   1.390       .  A
C941        C942   1.377       .  A
C941        H945   1.086       .  S
C942        O946   1.371       .  S
O944        H948   0.992       .  S
O946        H947   0.993       .  S
C949        C950   1.400       .  A
C949        C954   1.399       .  A
C950        C951   1.402       .  A
C950        H955   1.083       .  S
C951        C952   1.409       .  A
C951        O956   1.371       .  S
C952        C953   1.401       .  A
C953        C954   1.373       .  A
C953        H957   1.071       .  S
C954        O958   1.374       .  S
O956        H960   0.992       .  S
O958        H959   0.992       .  S
C961        C962   1.407       .  A
C961        C966   1.397       .  A
C962        C963   1.405       .  A
C962        H967   1.083       .  S
C963        C964   1.406       .  A
C963        O968   1.370       .  S
C964        C965   1.410       .  A
C965        C966   1.387       .  A
C965        H969   1.082       .  S
C966        O970   1.372       .  S
O968        H972   0.992       .  S
O970        H971   0.992       .  S
C973        C974   1.406       .  A
C973        C978   1.397       .  A
C974        C975   1.393       .  A
C974        H979   1.085       .  S
C975        C976   1.400       .  A
C975        O980   1.376       .  S
C976        C977   1.406       .  A
C977        C978   1.383       .  A
C977        H981   1.084       .  S
C978        O982   1.371       .  S
O980        H984   0.992       .  S
O982        H983   0.992       .  S
C985        C986   1.395       .  A
C985        C990   1.404       .  A
C986        C987   1.375       .  A
C986        H991   1.078       .  S
C987        C988   1.402       .  A
C987        O992   1.373       .  S
C988        C989   1.396       .  A
C989        C990   1.392       .  A
C989        H993   1.083       .  S
C990        O994   1.371       .  S
O992        H996   0.992       .  S
O994        H995   0.992       .  S
C997        C998   1.404       .  A
C997       C1002   1.406       .  A
C998        C999   1.407       .  A
C998       H1003   1.083       .  S
C999       C1000   1.414       .  A
C999       O1004   1.371       .  S
C1000      C1001   1.386       .  A
C1001      C1002   1.349       .  A
C1001      H1005   1.058       .  S
C1002      O1006   1.372       .  S
O1004      H1008   0.991       .  S
O1006      H1007   0.993       .  S
C1009      C1010   1.408       .  A
C1009      C1014   1.418       .  A
C1010      C1011   1.408       .  A
C1010      H1015   1.083       .  S
C1011      C1012   1.411       .  A
C1011      O1016   1.371       .  S
C1012      C1013   1.389       .  A
C1013      C1014   1.385       .  A
C1013      H1017   1.085       .  S
C1014      O1018   1.367       .  S
O1016      H1020   0.992       .  S
O1018      H1019   0.993       .  S
C1021      C1022   1.406       .  A
C1021      C1026   1.414       .  A
C1022      C1023   1.399       .  A
C1022      H1027   1.084       .  S
C1023      C1024   1.401       .  A
C1023      O1028   1.371       .  S
C1024      C1025   1.391       .  A
C1025      C1026   1.381       .  A
C1025      H1029   1.085       .  S
C1026      O1030   1.372       .  S
O1028      H1032   0.992       .  S
O1030      H1031   0.993       .  S
C1033      C1034   1.390       .  A
C1033      C1038   1.410       .  A
C1034      C1035   1.395       .  A
C1034      H1039   1.084       .  S
C1035      C1036   1.421       .  A
C1035      O1040   1.376       .  S
C1036      C1037   1.402       .  A
C1037      C1038   1.402       .  A
C1037      H1041   1.083       .  S
C1038      O1042   1.371       .  S
O1040      H1044   0.993       .  S
O1042      H1043   0.992       .  S
C1045      C1046   1.397       .  A
C1045      C1050   1.416       .  A
C1046      C1047   1.397       .  A
C1046      H1051   1.083       .  S
C1047      C1048   1.408       .  A
C1047      O1052   1.371       .  S
C1048      C1049   1.391       .  A
C1049      C1050   1.395       .  A
C1049      H1053   1.084       .  S
C1050      O1054   1.376       .  S
O1052      H1056   0.992       .  S
O1054      H1055   0.992       .  S
C1057      C1058   1.398       .  A
C1057      C1062   1.410       .  A
C1058      C1059   1.397       .  A
C1058      H1063   1.083       .  S
C1059      C1060   1.404       .  A
C1059      O1064   1.371       .  S
C1060      C1061   1.386       .  A
C1061      C1062   1.358       .  A
C1061      H1065   1.073       .  S
C1062      O1066   1.373       .  S
O1064      H1068   0.992       .  S
O1066      H1067   0.992       .  S
C1069      C1070   1.396       .  A
C1069      C1074   1.396       .  A
C1070      C1071   1.375       .  A
C1070      H1075   1.086       .  S
C1071      C1072   1.405       .  A
C1071      O1076   1.367       .  S
C1072      C1073   1.408       .  A
C1073      C1074   1.397       .  A
C1073      H1077   1.084       .  S
C1074      O1078   1.371       .  S
O1076      H1080   0.993       .  S
O1078      H1079   0.992       .  S
C1081      C1082   1.404       .  A
C1081      C1086   1.409       .  A
C1082      C1083   1.394       .  A
C1082      H1087   1.084       .  S
C1083      C1084   1.398       .  A
C1083      O1088   1.370       .  S
C1084      C1085   1.393       .  A
C1085      C1086   1.376       .  A
C1085      H1089   1.086       .  S
C1086      O1090   1.370       .  S
O1088      H1092   0.992       .  S
O1090      H1091   0.993       .  S
C1093      C1094   1.404       .  A
C1093      C1098   1.400       .  A
C1094      C1095   1.397       .  A
C1094      H1099   1.084       .  S
C1095      C1096   1.403       .  A
C1095      O1100   1.370       .  S
C1096      C1097   1.409       .  A
C1097      C1098   1.389       .  A
C1097      H1101   1.081       .  S
C1098      O1102   1.373       .  S
O1100      H1104   0.992       .  S
O1102      H1103   0.992       .  S
C1105      C1106   1.390       .  A
C1105      C1110   1.399       .  A
C1106      C1107   1.381       .  A
C1106      H1111   1.086       .  S
C1107      C1108   1.415       .  A
C1107      O1112   1.365       .  S
C1108      C1109   1.411       .  A
C1109      C1110   1.403       .  A
C1109      H1113   1.083       .  S
C1110      O1114   1.370       .  S
O1112      H1116   0.992       .  S
O1114      H1115   0.992       .  S
C1117      C1118   1.396       .  A
C1117      C1122   1.402       .  A
C1118      C1119   1.392       .  A
C1118      H1123   1.083       .  S
C1119      C1120   1.405       .  A
C1119      O1124   1.371       .  S
C1120      C1121   1.396       .  A
C1121      C1122   1.374       .  A
C1121      H1125   1.078       .  S
C1122      O1126   1.373       .  S
O1124      H1128   0.992       .  S
O1126      H1127   0.992       .  S
C1129      C1130   1.416       .  A
C1129      C1134   1.393       .  A
C1130      C1131   1.382       .  A
C1130      H1135   1.071       .  S
C1131      C1132   1.385       .  A
C1131      O1136   1.372       .  S
C1132      C1133   1.415       .  A
C1133      C1134   1.390       .  A
C1133      H1137   1.083       .  S
C1134      O1138   1.371       .  S
O1136      H1140   0.992       .  S
O1138      H1139   0.992       .  S
C1141      C1142   1.398       .  A
C1141      C1146   1.409       .  A
C1142      C1143   1.396       .  A
C1142      H1147   1.083       .  S
C1143      C1144   1.405       .  A
C1143      O1148   1.371       .  S
C1144      C1145   1.390       .  A
C1145      C1146   1.360       .  A
C1145      H1149   1.081       .  S
C1146      O1150   1.373       .  S
O1148      H1152   0.992       .  S
O1150      H1151   0.993       .  S
C1153      C1154   1.406       .  A
C1153      C1158   1.393       .  A
C1154      C1155   1.388       .  A
C1154      H1159   1.084       .  S
C1155      C1156   1.399       .  A
C1155      O1160   1.371       .  S
C1156      C1157   1.409       .  A
C1157      C1158   1.388       .  A
C1157      H1161   1.080       .  S
C1158      O1162   1.371       .  S
O1160      H1164   0.992       .  S
O1162      H1163   0.992       .  S
C1165      C1166   1.402       .  A
C1165      C1170   1.398       .  A
C1166      C1167   1.367       .  A
C1166      H1171   1.081       .  S
C1167      C1168   1.399       .  A
C1167      O1172   1.373       .  S
C1168      C1169   1.405       .  A
C1169      C1170   1.396       .  A
C1169      H1173   1.084       .  S
C1170      O1174   1.371       .  S
O1172      H1176   0.993       .  S
O1174      H1175   0.992       .  S
C1177      C1178   1.401       .  A
C1177      C1182   1.401       .  A
C1178      C1179   1.376       .  A
C1178      H1183   1.085       .  S
C1179      C1180   1.400       .  A
C1179      O1184   1.373       .  S
C1180      C1181   1.399       .  A
C1181      C1182   1.392       .  A
C1181      H1185   1.084       .  S
C1182      O1186   1.370       .  S
O1184      H1188   0.992       .  S
O1186      H1187   0.992       .  S
C1189      C1190   1.409       .  A
C1189      C1194   1.396       .  A
C1190      C1191   1.406       .  A
C1190      H1195   1.083       .  S
C1191      C1192   1.405       .  A
C1191      O1196   1.371       .  S
C1192      C1193   1.406       .  A
C1193      C1194   1.382       .  A
C1193      H1197   1.080       .  S
C1194      O1198   1.372       .  S
O1196      H1200   0.992       .  S
O1198      H1199   0.992       .  S
C1201      C1202   1.405       .  A
C1201      C1206   1.404       .  A
C1202      C1203   1.409       .  A
C1202      H1207   1.083       .  S
C1203      C1204   1.409       .  A
C1203      O1208   1.370       .  S
C1204      C1205   1.387       .  A
C1205      C1206   1.348       .  A
C1205      H1209   1.065       .  S
C1206      O1210   1.372       .  S
O1208      H1212   0.992       .  S
O1210      H1211   0.992       .  S
C1213      C1214   1.403       .  A
C1213      C1218   1.410       .  A
C1214      C1215   1.402       .  A
C1214      H1219   1.083       .  S
C1215      C1216   1.407       .  A
C1215      O1220   1.367       .  S
C1216      C1217   1.392       .  A
C1217      C1218   1.387       .  A
C1217      H1221   1.085       .  S
C1218      O1222   1.377       .  S
O1220      H1224   0.992       .  S
O1222      H1223   0.993       .  S
C1225      C1226   1.392       .  A
C1225      C1230   1.399       .  A
C1226      C1227   1.380       .  A
C1226      H1231   1.086       .  S
C1227      C1228   1.413       .  A
C1227      O1232   1.367       .  S
C1228      C1229   1.409       .  A
C1229      C1230   1.401       .  A
C1229      H1233   1.084       .  S
C1230      O1234   1.370       .  S
O1232      H1236   0.993       .  S
O1234      H1235   0.992       .  S
C1237      C1238   1.388       .  A
C1237      C1242   1.401       .  A
C1238      C1239   1.380       .  A
C1238      H1243   1.086       .  S
C1239      C1240   1.415       .  A
C1239      O1244   1.370       .  S
C1240      C1241   1.408       .  A
C1241      C1242   1.402       .  A
C1241      H1245   1.083       .  S
C1242      O1246   1.371       .  S
O1244      H1248   0.993       .  S
O1246      H1247   0.992       .  S
C1249      C1250   1.408       .  A
C1249      C1254   1.397       .  A
C1250      C1251   1.406       .  A
C1250      H1255   1.083       .  S
C1251      C1252   1.407       .  A
C1251      O1256   1.370       .  S
C1252      C1253   1.409       .  A
C1253      C1254   1.387       .  A
C1253      H1257   1.081       .  S
C1254      O1258   1.372       .  S
O1256      H1260   0.992       .  S
O1258      H1259   0.992       .  S
C1261      C1262   1.409       .  A
C1261      C1266   1.396       .  A
C1262      C1263   1.387       .  A
C1262      H1267   1.080       .  S
C1263      C1264   1.391       .  A
C1263      O1268   1.371       .  S
C1264      C1265   1.407       .  A
C1265      C1266   1.385       .  A
C1265      H1269   1.085       .  S
C1266      O1270   1.372       .  S
O1268      H1272   0.992       .  S
O1270      H1271   0.992       .  S
C1273      C1274   1.406       .  A
C1273      C1278   1.398       .  A
C1274      C1275   1.407       .  A
C1274      H1279   1.083       .  S
C1275      C1276   1.406       .  A
C1275      O1280   1.370       .  S
C1276      C1277   1.402       .  A
C1277      C1278   1.382       .  A
C1277      H1281   1.079       .  S
C1278      O1282   1.373       .  S
O1280      H1284   0.992       .  S
O1282      H1283   0.992       .  S
C1285      C1286   1.396       .  A
C1285      C1290   1.398       .  A
C1286      C1287   1.380       .  A
C1286      H1291   1.085       .  S
C1287      C1288   1.406       .  A
C1287      O1292   1.375       .  S
C1288      C1289   1.400       .  A
C1289      C1290   1.400       .  A
C1289      H1293   1.083       .  S
C1290      O1294   1.364       .  S
O1292      H1296   0.992       .  S
O1294      H1295   0.991       .  S
C1297      C1298   1.408       .  A
C1297      C1302   1.383       .  A
C1298      C1299   1.397       .  A
C1298      H1303   1.080       .  S
C1299      C1300   1.400       .  A
C1299      O1304   1.371       .  S
C1300      C1301   1.412       .  A
C1301      C1302   1.358       .  A
C1301      H1305   1.070       .  S
C1302      O1306   1.375       .  S
O1304      H1308   0.992       .  S
O1306      H1307   0.992       .  S
C1309      C1310   1.402       .  A
C1309      C1314   1.399       .  A
C1310      C1311   1.401       .  A
C1310      H1315   1.082   1_655  S
C1311      C1312   1.405       .  A
C1311      O1316   1.372       .  S
C1312      C1313   1.402       .  A
C1313      C1314   1.376       .  A
C1313      H1317   1.075       .  S
C1314      O1318   1.374       .  S
O1316      H1320   0.992       .  S
O1318      H1319   0.992       .  S
C1321      C1322   1.382       .  A
C1321      C1326   1.410       .  A
C1322      C1323   1.373       .  A
C1322      H1327   1.085       .  S
C1323      C1324   1.418       .  A
C1323      O1328   1.372       .  S
C1324      C1325   1.390       .  A
C1325      C1326   1.391       .  A
C1325      H1329   1.084       .  S
C1326      O1330   1.377       .  S
O1328      H1332   0.992       .  S
O1330      H1331   0.992       .  S
C1333      C1334   1.406       .  A
C1333      C1338   1.410       .  A
C1334      C1335   1.398       .  A
C1334      H1339   1.082       .  S
C1335      C1336   1.407       .  A
C1335      O1340   1.370       .  S
C1336      C1337   1.402       .  A
C1337      C1338   1.399       .  A
C1337      H1341   1.084       .  S
C1338      O1342   1.370       .  S
O1340      H1344   0.992       .  S
O1342      H1343   0.992       .  S
C1345      C1346   1.412       .  A
C1345      C1350   1.428       .  A
C1346      C1347   1.393       .  A
C1346      H1351   1.070       .  S
C1347      C1348   1.409       .  A
C1347      O1352   1.373       .  S
C1348      C1349   1.403       .  A
C1349      C1350   1.400       .  A
C1349      H1353   1.082       .  S
C1350      O1354   1.372       .  S
O1352      H1356   0.992       .  S
O1354      H1355   0.993       .  S
C1357      C1358   1.406       .  A
C1357      C1362   1.415       .  A
C1358      C1359   1.397       .  A
C1358      H1363   1.083       .  S
C1359      C1360   1.407       .  A
C1359      O1364   1.370       .  S
C1360      C1361   1.398       .  A
C1361      C1362   1.399       .  A
C1361      H1365   1.084       .  S
C1362      O1366   1.370       .  S
O1364      H1368   0.991       .  S
O1366      H1367   0.991       .  S
C1369      C1370   1.400       .  A
C1369      C1374   1.398       .  A
C1370      C1371   1.387       .  A
C1370      H1375   1.084       .  S
C1371      C1372   1.401       .  A
C1371      O1376   1.372       .  S
C1372      C1373   1.402       .  A
C1373      C1374   1.389       .  A
C1373      H1377   1.084       .  S
C1374      O1378   1.371       .  S
O1376      H1380   0.991       .  S
O1378      H1379   0.992       .  S
C1381      C1382   1.406       .  A
C1381      C1386   1.421       .  A
C1382      C1383   1.399       .  A
C1382      H1387   1.080       .  S
C1383      C1384   1.405       .  A
C1383      O1388   1.369       .  S
C1384      C1385   1.407       .  A
C1385      C1386   1.406       .  A
C1385      H1389   1.083       .  S
C1386      O1390   1.373       .  S
O1388      H1392   0.989       .  S
O1390      H1391   0.993       .  S
C1393      C1394   1.407       .  A
C1393      C1398   1.417       .  A
C1394      C1395   1.401       .  A
C1394      H1399   1.080       .  S
C1395      C1396   1.410       .  A
C1395      O1400   1.374       .  S
C1396      C1397   1.408       .  A
C1397      C1398   1.393       .  A
C1397      H1401   1.082       .  S
C1398      O1402   1.370       .  S
O1400      H1404   0.993       .  S
O1402      H1403   0.992       .  S
