geometry optimzed in LAMMPS
_audit_creation_date              2020-11-30 
_audit_creation_method            'lammps2cif' 
_symmetry_space_group_name_H-M    'P1' 
_symmetry_Int_Tables_number       1 
_symmetry_cell_setting            triclinic 
loop_ 
_symmetry_equiv_pos_as_xyz 
  x,y,z 
_cell_length_a                    23.077301067542358 
_cell_length_b                    23.210871807681144 
_cell_length_c                    23.15421510638989 
_cell_angle_alpha                 90.88984397361206 
_cell_angle_beta                  89.30911881635237 
_cell_angle_gamma                 92.37545108330193 
loop_ 
_atom_site_label 
_atom_site_type_symbol 
_atom_site_fract_x 
_atom_site_fract_y 
_atom_site_fract_z 
_atom_site_charge 
O1          O  0.21915369  0.52579980  0.92487527    -0.72110
O2          O  0.21256114  0.49292920  0.08991893    -0.72330
O3          O  0.21096264  0.58698871  0.02806889    -0.72190
O4          O  0.20696562  0.43272839  0.98981994    -0.72190
O5          O  0.29818041  0.42653478  0.00916354    -0.72150
O6          O  0.30338805  0.59641821  0.01105157    -0.72170
O7          O  0.30556439  0.51233410  0.08735092    -0.72120
O8          O  0.31114415  0.51080152  0.93120720    -0.72300
V9          V  0.21372522  0.50997567  0.00794057     1.35240
V10         V  0.30332958  0.51148874  0.00957647     1.35170
C11         C  0.26904197  0.52000417  0.90050729     0.77130
C12         C  0.26124725  0.49941544  0.11559616     0.77190
C13         C  0.25477850  0.61959436  0.02257008     0.77060
C14         C  0.24852167  0.40170797  0.99805287     0.77020
C15         C  0.34013024  0.49878189  0.66418551    -0.02820
O16         O  0.71097119  0.57661248  0.99185512    -0.72110
O17         O  0.71161195  0.40658430  0.99852146    -0.72330
O18         O  0.70173374  0.49683090  0.07222320    -0.72190
O19         O  0.70139855  0.48765960  0.91582826    -0.72190
O20         O  0.79480177  0.49965783  0.90733865    -0.72150
O21         O  0.79524942  0.49344497  0.07776130    -0.72170
O22         O  0.80477763  0.41828482  0.98800909    -0.72120
O23         O  0.80454701  0.57231907  0.99534795    -0.72300
V24         V  0.70803630  0.49162267  0.99416919     1.35240
V25         V  0.79800896  0.49546669  0.99219983     1.35170
C26         C  0.76163991  0.60187145  0.99562311     0.77130
C27         C  0.76229034  0.38507892  0.99466997     0.77190
C28         C  0.74515102  0.49780900  0.10273559     0.77060
C29         C  0.74426425  0.49658175  0.88418349     0.77020
C30         C  0.66955129  0.50536016  0.64959731    -0.02820
O31         O  0.99631284  0.57622417  0.72664077    -0.72110
O32         O  0.01442070  0.40807549  0.71790835    -0.72330
O33         O  0.92760692  0.48074104  0.70912289    -0.72190
O34         O  0.08427341  0.50528961  0.71734139    -0.72190
O35         O  0.08439424  0.47341931  0.80489924    -0.72150
O36         O  0.91792570  0.50762487  0.79860981    -0.72170
O37         O  0.97862881  0.41284555  0.80472789    -0.72120
O38         O  0.02225517  0.56487918  0.81454574    -0.72300
V39         V  0.00575902  0.49247231  0.71780896     1.35240
V40         V  0.00071519  0.48933049  0.80541013     1.35170
C41         C  0.00692799  0.59805036  0.77734103     0.77130
C42         C  0.99679182  0.38253001  0.76444841     0.77190
C43         C  0.89538264  0.49818626  0.74838892     0.77060
C44         C  0.11261100  0.48902666  0.75878733     0.77020
O45         O  0.90967810  0.49245663  0.19879192    -0.72110
O46         O  0.08058119  0.48982804  0.19693048    -0.72330
O47         O  0.99122738  0.41361033  0.19296351    -0.72190
O48         O  0.99979520  0.57068766  0.18548370    -0.72190
O49         O  0.01226536  0.58230629  0.27745451    -0.72150
O50         O  0.97955576  0.41377639  0.28594911    -0.72170
O51         O  0.07192538  0.48308292  0.28995074    -0.72120
O52         O  0.91817947  0.51115041  0.29042034    -0.72300
V53         V  0.99523910  0.49205733  0.19502684     1.35240
V54         V  0.99541237  0.49779639  0.28431107     1.35170
C55         C  0.88604258  0.50180641  0.24862351     0.77130
C56         C  0.10367965  0.48279534  0.24661530     0.77190
C57         C  0.98306479  0.38570037  0.23763521     0.77060
C58         C  0.00971404  0.60448727  0.22667736     0.77020
C59         C  0.65728485  0.49974448  0.33548258    -0.02820
C60         C  0.32958788  0.49526363  0.34685191    -0.02820
O61         O  0.57856393  0.69465920  0.97991457    -0.72110
O62         O  0.40954177  0.70760688  0.99741390    -0.72330
O63         O  0.48413037  0.69832663  0.91165585    -0.72190
O64         O  0.49996966  0.68552011  0.06485089    -0.72190
O65         O  0.49768063  0.77747657  0.08095914    -0.72150
O66         O  0.51344267  0.78829836  0.91153098    -0.72170
O67         O  0.42929201  0.79937052  0.98943537    -0.72120
O68         O  0.58205328  0.78522189  0.00478650    -0.72300
V69         V  0.49333482  0.69782821  0.98869366     1.35240
V70         V  0.50507940  0.78630072  0.99653945     1.35170
C71         C  0.60811885  0.74184210  0.99127625     0.77130
C72         C  0.39267597  0.75966946  0.99468910     0.77190
C73         C  0.49996052  0.74105310  0.88386184     0.77060
C74         C  0.50013355  0.72571197  0.10014648     0.77020
C75         C  0.50666172  0.65735087  0.65602508    -0.02820
O76         O  0.59451195  0.00817661  0.71006433    -0.72110
O77         O  0.42313334  0.00894552  0.69648535    -0.72330
O78         O  0.51308946  0.08590045  0.69654547    -0.72190
O79         O  0.50790864  0.93176743  0.69003149    -0.72190
O80         O  0.50594492  0.92067582  0.78225221    -0.72150
O81         O  0.49410094  0.09177577  0.78794735    -0.72170
O82         O  0.42200412  0.99668948  0.78900806    -0.72120
O83         O  0.57802928  0.01551547  0.80206713    -0.72300
V84         V  0.50937492  0.00867610  0.70005178     1.35240
V85         V  0.50048637  0.00624927  0.78885077     1.35170
C86         C  0.61377816  0.01176867  0.76219325     0.77130
C87         C  0.39430741  0.00210788  0.74438997     0.77190
C88         C  0.50251327  0.11677782  0.73873728     0.77060
C89         C  0.50616599  0.89836157  0.73056900     0.77020
O90         O  0.51486133  0.21422102  0.91006693    -0.72110
O91         O  0.49370838  0.21594312  0.07911793    -0.72330
O92         O  0.42655268  0.21037567  0.98467765    -0.72190
O93         O  0.58233625  0.20386700  0.00523481    -0.72190
O94         O  0.59683291  0.29479362  0.98692516    -0.72150
O95         O  0.42749204  0.30158210  0.00670305    -0.72170
O96         O  0.52293374  0.30562553  0.07355399    -0.72120
O97         O  0.50343671  0.30618851  0.91835780    -0.72300
V98         V  0.50478455  0.21213998  0.99471624     1.35240
V99         V  0.51253679  0.30090293  0.99607120     1.35170
C100        C  0.50922217  0.26348848  0.88626913     0.77130
C101        C  0.50581583  0.26491420  0.10399691     0.77190
C102        C  0.39896499  0.25341591  0.99781635     0.77060
C103        C  0.61709740  0.24515059  0.99699416     0.77020
C104        C  0.50534411  0.34448137  0.65372275    -0.02820
O105        O  0.51854977  0.91171067  0.21220177    -0.72110
O106        O  0.49682082  0.07673141  0.23844246    -0.72330
O107        O  0.58713031  0.01059386  0.21853731    -0.72190
O108        O  0.43078565  0.98125121  0.21605779    -0.72190
O109        O  0.42370316  0.99160638  0.30906113    -0.72150
O110        O  0.59364557  0.97776596  0.30531270    -0.72170
O111        O  0.51966830  0.06098376  0.32677486    -0.72120
O112        O  0.49883264  0.90719631  0.30380167    -0.72300
V113        V  0.50883358  0.99516371  0.22228873     1.35240
V114        V  0.50898609  0.98438526  0.31024143     1.35170
C115        C  0.50758828  0.88142070  0.25741404     0.77130
C116        C  0.50464420  0.09556238  0.29060621     0.77190
C117        C  0.61827839  0.99447483  0.25795500     0.77060
C118        C  0.39926036  0.98698347  0.25921914     0.77020
C119        C  0.49153034  0.65330883  0.33742346    -0.02820
C120        C  0.48809501  0.33999087  0.34083531    -0.02820
O121        O  0.20475075  0.91122442  0.51835981    -0.72110
O122        O  0.21326184  0.07969676  0.50165570    -0.72330
O123        O  0.20195115  0.98555789  0.43029724    -0.72190
O124        O  0.19749484  0.00555165  0.58486190    -0.72190
O125        O  0.28888852  0.99009743  0.59523757    -0.72150
O126        O  0.29536595  0.99927140  0.42496328    -0.72170
O127        O  0.30505682  0.07170572  0.51729822    -0.72120
O128        O  0.29810918  0.91734894  0.50589852    -0.72300
V129        V  0.20584267  0.99536394  0.50835655     1.35240
V130        V  0.29544367  0.99466075  0.51043461     1.35170
C131        C  0.25419529  0.88736033  0.51703271     0.77130
C132        C  0.26382816  0.10306683  0.51185277     0.77190
C133        C  0.24578016  0.99307427  0.39975330     0.77060
C134        C  0.23813378  0.99750150  0.61725792     0.77020
C135        C  0.33430886  0.65970479  0.50826856    -0.02820
O136        O  0.70438649  0.00829850  0.59318317    -0.72110
O137        O  0.71414418  0.00806401  0.42334720    -0.72330
O138        O  0.70158047  0.92928172  0.50745756    -0.72190
O139        O  0.70080419  0.08532230  0.51076132    -0.72190
O140        O  0.79419844  0.09520775  0.49919053    -0.72150
O141        O  0.79366413  0.92765432  0.52453247    -0.72170
O142        O  0.80650842  0.99858099  0.43412463    -0.72120
O143        O  0.79701510  0.02831524  0.58954871    -0.72300
V144        V  0.70673636  0.00777069  0.50852132     1.35240
V145        V  0.79641824  0.01209918  0.51197901     1.35170
C146        C  0.75224139  0.02110694  0.61909310     0.77130
C147        C  0.76518968  0.00292260  0.40093017     0.77190
C148        C  0.74424917  0.90046444  0.51759716     0.77060
C149        C  0.74417579  0.11739845  0.50313362     0.77020
C150        C  0.65825805  0.66688905  0.48972993    -0.02820
O151        O  0.00224326  0.70801469  0.40875222    -0.72110
O152        O  0.98980522  0.72881547  0.57699528    -0.72330
O153        O  0.91830810  0.71407087  0.48687694    -0.72190
O154        O  0.07248516  0.70591689  0.50144598    -0.72190
O155        O  0.08968929  0.79790410  0.49171357    -0.72150
O156        O  0.92004746  0.80714829  0.47923551    -0.72170
O157        O  0.99982220  0.82058477  0.56118996    -0.72120
O158        O  0.01156237  0.80129488  0.40668824    -0.72300
V159        V  0.99594580  0.71605293  0.49331257     1.35240
V160        V  0.00519369  0.80499133  0.48463229     1.35170
C161        C  0.00829154  0.75481511  0.37985489     0.77130
C162        C  0.99290850  0.78123991  0.59601095     0.77190
C163        C  0.89134943  0.75855206  0.48277153     0.77060
C164        C  0.10803686  0.74699620  0.49971939     0.77020
O165        O  0.07834686  0.18775488  0.50904387    -0.72110
O166        O  0.90916412  0.20227229  0.49436700    -0.72330
O167        O  0.00034410  0.18454628  0.42433029    -0.72190
O168        O  0.98510217  0.18753704  0.57938205    -0.72190
O169        O  0.01593484  0.27656769  0.58656241    -0.72150
O170        O  0.99280011  0.27691983  0.41800576    -0.72170
O171        O  0.92869569  0.29225799  0.51449018    -0.72120
O172        O  0.08159336  0.27869135  0.48898431    -0.72300
V173        V  0.99329408  0.19157589  0.50181902     1.35240
V174        V  0.00456105  0.27995332  0.50212870     1.35170
C175        C  0.10804788  0.23496953  0.49934284     0.77130
C176        C  0.89177324  0.25374744  0.50377813     0.77190
C177        C  0.99501767  0.22685724  0.39340804     0.77060
C178        C  0.00142630  0.22831651  0.61083902     0.77020
C179        C  0.66284572  0.34107584  0.48588564    -0.02820
C180        C  0.33837620  0.33524050  0.50754821    -0.02820
C181        C  0.00473644  0.15162475  0.16242172    -0.02820
C182        C  0.84153843  0.99056799  0.16152330    -0.02820
C183        C  0.00696956  0.83782107  0.15204465    -0.02820
C184        C  0.17112342  0.99864006  0.16559044    -0.02820
C185        C  0.99536636  0.84243457  0.83639484    -0.02820
C186        C  0.15724009  0.00612512  0.83853205    -0.02820
C187        C  0.00573425  0.16299967  0.85338432    -0.02820
C188        C  0.83587945  0.99995649  0.85041070    -0.02820
C189        C  0.17201687  0.16049707  0.00864953    -0.02820
C190        C  0.16528205  0.84334905  0.99213936    -0.02820
C191        C  0.84345935  0.15824762  0.00792999    -0.02820
C192        C  0.84034494  0.83439810  0.99811928    -0.02820
C193        C  0.86952699  0.12618798  0.06085433     0.02800
C194        C  0.92504718  0.14518655  0.08127046    -0.13350
C195        C  0.95172390  0.12127399  0.12928835     0.00300
C196        C  0.92654419  0.06807329  0.14975095    -0.11880
C197        C  0.87155337  0.04565661  0.13170946     0.02790
C198        C  0.84496655  0.07446019  0.08488911    -0.11300
H199        H  0.94854908  0.17755058  0.05770105     0.08390
H200        H  0.94841320  0.04537024  0.18284680     0.05910
H201        H  0.80510770  0.05643986  0.06677281     0.05760
C202        C  0.13957730  0.87554357  0.04820876     0.02800
C203        C  0.08647989  0.85258632  0.07231645    -0.13350
C204        C  0.06128499  0.87244339  0.12508718     0.00300
C205        C  0.08740638  0.92265250  0.15005941    -0.11880
C206        C  0.14143517  0.94748399  0.12977885     0.02790
C207        C  0.16359488  0.92665765  0.07573051    -0.11300
H208        H  0.06502350  0.81678886  0.05000749     0.08390
H209        H  0.06599243  0.94267604  0.18593784     0.05910
H210        H  0.19922375  0.95074995  0.05562490     0.05760
C211        C  0.06002742  0.13593183  0.88129831     0.02800
C212        C  0.08191491  0.08554340  0.85480900    -0.13350
C213        C  0.13328160  0.06010514  0.87243705     0.00300
C214        C  0.15991801  0.08336422  0.92365374    -0.11880
C215        C  0.13865311  0.13268228  0.95419353     0.02790
C216        C  0.08603089  0.15527865  0.93383016    -0.11300
H217        H  0.05787032  0.06558252  0.81970375     0.08390
H218        H  0.19828182  0.06350178  0.93909812     0.05910
H219        H  0.06603960  0.18863181  0.95872308     0.05760
C220        C  0.87198791  0.86240817  0.05204313     0.02800
C221        C  0.92583000  0.84319800  0.07258748    -0.13350
C222        C  0.95033127  0.86395503  0.12501621     0.00300
C223        C  0.92302562  0.91273319  0.15178485    -0.11880
C224        C  0.87059678  0.93639953  0.13102968     0.02790
C225        C  0.84934201  0.91260225  0.07851465    -0.11300
H226        H  0.94837762  0.81146677  0.04764420     0.08390
H227        H  0.94229061  0.93223450  0.18993269     0.05910
H228        H  0.81380500  0.93256407  0.05823108     0.05760
C229        C  0.04996569  0.87091677  0.87082789     0.02800
C230        C  0.07393943  0.92527195  0.85142089    -0.13350
C231        C  0.12840042  0.95073825  0.87018767     0.00300
C232        C  0.15408900  0.92439216  0.91772895    -0.11880
C233        C  0.13124810  0.87135283  0.94163163     0.02790
C234        C  0.07604706  0.84952355  0.92150436    -0.11300
H235        H  0.05118774  0.94657749  0.81781052     0.08390
H236        H  0.19396122  0.94386404  0.93453855     0.05910
H237        H  0.05611214  0.81455531  0.94481491     0.05760
C238        C  0.86955571  0.05336664  0.87936519     0.02800
C239        C  0.92366785  0.07672574  0.85690848    -0.13350
C240        C  0.95126624  0.12829278  0.88034412     0.00300
C241        C  0.92758613  0.15003877  0.93274923    -0.11880
C242        C  0.87437893  0.12886826  0.95579778     0.02790
C243        C  0.85001111  0.07695804  0.93202452    -0.11300
H244        H  0.94343561  0.05520665  0.82044338     0.08390
H245        H  0.94960661  0.18597561  0.95466103     0.05910
H246        H  0.81409030  0.05597062  0.95420822     0.05760
C247        C  0.94161969  0.87282757  0.86521093     0.02800
C248        C  0.91997845  0.92717982  0.84999916    -0.13350
C249        C  0.86751122  0.94753968  0.87485321     0.00300
C250        C  0.84518816  0.92008180  0.92532335    -0.11880
C251        C  0.86705874  0.86831433  0.94503605     0.02790
C252        C  0.91736183  0.84827555  0.91649382    -0.11300
H253        H  0.94264932  0.95407263  0.81913307     0.08390
H254        H  0.80966956  0.93867454  0.94896913     0.05910
H255        H  0.93721390  0.81157766  0.93446758     0.05760
C256        C  0.06274779  0.12459543  0.13782419     0.02800
C257        C  0.09015815  0.14883516  0.08756363    -0.13350
C258        C  0.14348567  0.12971190  0.06369155     0.00300
C259        C  0.16594433  0.07973699  0.08861537    -0.11880
C260        C  0.14229171  0.05386276  0.13980244     0.02790
C261        C  0.08809676  0.07459348  0.16031103    -0.11300
H262        H  0.07023832  0.18427372  0.06703463     0.08390
H263        H  0.20116332  0.05924744  0.06710461     0.05910
H264        H  0.06485337  0.04994964  0.19232959     0.05760
C265        C  0.36988994  0.36801250  0.55878742     0.02800
C266        C  0.42455432  0.35202139  0.57853626    -0.13350
C267        C  0.45018717  0.37519700  0.62982734     0.00300
C268        C  0.42434237  0.42514407  0.65392302    -0.11880
C269        C  0.36979039  0.44508075  0.63473180     0.02790
C270        C  0.34608992  0.41762930  0.58469575    -0.11300
H271        H  0.44673566  0.31920103  0.55451797     0.08390
H272        H  0.44713263  0.45009897  0.68608349     0.05910
H273        H  0.30981728  0.43592261  0.56427572     0.05760
C274        C  0.54517472  0.36911042  0.37045791     0.02800
C275        C  0.57176697  0.42111921  0.34674147    -0.13350
C276        C  0.62631357  0.44608822  0.36568069     0.00300
C277        C  0.65039213  0.42173602  0.41435229    -0.11880
C278        C  0.62943700  0.36877524  0.43657694     0.02790
C279        C  0.57317539  0.34815974  0.41975410    -0.11300
H280        H  0.55126573  0.44121201  0.31120796     0.08390
H281        H  0.68676774  0.44326083  0.43478544     0.05910
H282        H  0.55348140  0.31550434  0.44573711     0.05760
C283        C  0.36080621  0.54886894  0.37772288     0.02800
C284        C  0.33832350  0.57444895  0.42950475    -0.13350
C285        C  0.36086172  0.62854203  0.45200083     0.00300
C286        C  0.41348871  0.65101510  0.42522075    -0.11880
C287        C  0.43862060  0.62643838  0.37418432     0.02790
C288        C  0.41335449  0.57320935  0.35465045    -0.11300
H289        H  0.30196198  0.55275118  0.45103621     0.08390
H290        H  0.43534955  0.68689019  0.44565646     0.05910
H291        H  0.43345615  0.55189750  0.31818734     0.05760
C292        C  0.35836729  0.44328727  0.37688163     0.02800
C293        C  0.41204268  0.42318639  0.35410298    -0.13350
C294        C  0.43558401  0.37121203  0.37121853     0.00300
C295        C  0.41379058  0.34987206  0.42474948    -0.11880
C296        C  0.36189593  0.36846619  0.45208972     0.02790
C297        C  0.33636220  0.41777632  0.42858923    -0.11300
H298        H  0.43435533  0.44821463  0.32236629     0.08390
H299        H  0.43628801  0.31571938  0.44458275     0.05910
H300        H  0.29933305  0.43613831  0.44997140     0.05760
C301        C  0.36918772  0.55357585  0.63285812     0.02800
C302        C  0.42476548  0.57678676  0.64903064    -0.13350
C303        C  0.45059136  0.62871463  0.62552006     0.00300
C304        C  0.42369811  0.65003409  0.57566800    -0.11880
C305        C  0.36683580  0.63093519  0.55897713     0.02790
C306        C  0.34200017  0.58076040  0.58633697    -0.11300
H307        H  0.44695590  0.55564834  0.68315496     0.08390
H308        H  0.44685124  0.68049418  0.54846833     0.05910
H309        H  0.30077620  0.56289397  0.57129214     0.05760
C310        C  0.56058221  0.37248939  0.62038361     0.02800
C311        C  0.58477121  0.34988504  0.56867122    -0.13350
C312        C  0.63717147  0.37269911  0.54212964     0.00300
C313        C  0.66079455  0.42637611  0.56501815    -0.11880
C314        C  0.63961929  0.45097246  0.61748452     0.02790
C315        C  0.58680615  0.42547186  0.64087296    -0.11300
H316        H  0.56163625  0.31537672  0.54713197     0.08390
H317        H  0.69728370  0.44787420  0.54343576     0.05910
H318        H  0.56717036  0.44600018  0.67786856     0.05760
C319        C  0.62637923  0.55443929  0.36248179     0.02800
C320        C  0.57173267  0.57279613  0.34305169    -0.13350
C321        C  0.54732228  0.62507736  0.36358993     0.00300
C322        C  0.57359787  0.65180638  0.41377661    -0.11880
C323        C  0.62708686  0.63537550  0.43627061     0.02790
C324        C  0.65092394  0.58491585  0.41114160    -0.11300
H325        H  0.54830511  0.54558620  0.31236701     0.08390
H326        H  0.55185935  0.68601426  0.43584861     0.05910
H327        H  0.68986440  0.56934793  0.42993502     0.05760
C328        C  0.63809491  0.55731289  0.62204038     0.02800
C329        C  0.58662977  0.57890496  0.64716139    -0.13350
C330        C  0.56033938  0.62836082  0.62637769     0.00300
C331        C  0.58269456  0.65147805  0.57352025    -0.11880
C332        C  0.63369970  0.63227841  0.54506212     0.02790
C333        C  0.65820744  0.58197344  0.56825270    -0.11300
H334        H  0.56653524  0.55586369  0.68213094     0.08390
H335        H  0.56080231  0.68703897  0.55500650     0.05910
H336        H  0.69508059  0.56379942  0.54640041     0.05760
C337        C  0.17093383  0.24842261  0.50225046    -0.06450
C338        C  0.19478239  0.25724971  0.55678109    -0.17580
C339        C  0.24451761  0.29381531  0.56568489     0.10740
C340        C  0.27023299  0.32787973  0.51863555    -0.06380
C341        C  0.23552991  0.32802574  0.46914601    -0.17610
C342        C  0.19410125  0.28368936  0.45782191     0.10770
S343        S  0.26803368  0.29168344  0.63960496    -0.32580
S344        S  0.17324906  0.27207331  0.38414052    -0.32590
H345        H  0.14858234  0.21651206  0.39255776     0.28780
H346        H  0.32555666  0.30932742  0.63411896     0.28780
H347        H  0.17386183  0.23573938  0.59321874     0.19370
H348        H  0.24666378  0.35537493  0.43391217     0.19380
C349        C  0.00352055  0.21222186  0.67259922    -0.06450
C350        C  0.05405587  0.22245078  0.70403667    -0.17580
C351        C  0.06102057  0.19749413  0.75878818     0.10740
C352        C  0.01445628  0.16333610  0.78543693    -0.06380
C353        C  0.96701867  0.14884659  0.74978174    -0.17610
C354        C  0.96175105  0.17100004  0.69476169     0.10770
S355        S  0.12870708  0.21384486  0.79467068    -0.32580
S356        S  0.89700240  0.14619466  0.65723991    -0.32590
H357        H  0.89010006  0.19791019  0.62880095     0.28780
H358        H  0.15598146  0.24773802  0.75160380     0.28780
H359        H  0.08867146  0.24895201  0.68492232     0.19370
H360        H  0.92874780  0.12694723  0.76595641     0.19380
C361        C  0.99426901  0.21036121  0.33156958    -0.06450
C362        C  0.03797619  0.17215322  0.31493102    -0.17580
C363        C  0.02892768  0.13182975  0.27036789     0.10740
C364        C  0.98821944  0.14367984  0.22808664    -0.06380
C365        C  0.93973277  0.17447918  0.24825966    -0.17610
C366        C  0.94326579  0.20926662  0.29852271     0.10770
S367        S  0.02895179  0.06008834  0.29821991    -0.32580
S368        S  0.88500931  0.25641139  0.31326507    -0.32590
H369        H  0.91840433  0.29884437  0.34310413     0.28780
H370        H  0.97414588  0.04251778  0.27710749     0.28780
H371        H  0.07242388  0.16437476  0.34489355     0.19370
H372        H  0.90393320  0.18038357  0.21956243     0.19380
C373        C  0.83296736  0.27645285  0.49912350    -0.06450
C374        C  0.80655957  0.27427933  0.44580406    -0.17580
C375        C  0.76195220  0.31133876  0.43247186     0.10740
C376        C  0.73205420  0.34343526  0.47755220    -0.06380
C377        C  0.76482515  0.34998570  0.52817533    -0.17610
C378        C  0.81533072  0.32064411  0.53760131     0.10770
S379        S  0.75219722  0.31574797  0.35629015    -0.32580
S380        S  0.85584391  0.34311507  0.59996253    -0.32590
H381        H  0.87480404  0.28820949  0.61111650     0.28780
H382        H  0.71830971  0.36257976  0.36101385     0.28780
H383        H  0.82393423  0.24641943  0.41275680     0.19370
H384        H  0.74777805  0.37060641  0.56519544     0.19380
C385        C  0.99441843  0.80157379  0.65613680    -0.06450
C386        C  0.04023882  0.78486876  0.68855432    -0.17580
C387        C  0.05156194  0.80996452  0.74245211     0.10740
C388        C  0.01139166  0.84874596  0.76952510    -0.06380
C389        C  0.97496758  0.87519976  0.73027661    -0.17610
C390        C  0.96624556  0.85233734  0.67418652     0.10770
S391        S  0.11073535  0.77826780  0.77604880    -0.32580
S392        S  0.91573292  0.88797840  0.62908411    -0.32590
H393        H  0.89372020  0.83749463  0.60156836     0.28780
H394        H  0.12576656  0.82906603  0.80435789     0.28780
H395        H  0.06822713  0.75215179  0.67122307     0.19370
H396        H  0.94873207  0.90998309  0.74269452     0.19380
C397        C  0.00923136  0.76347590  0.31673489    -0.06450
C398        C  0.05403421  0.80227511  0.29766080    -0.17580
C399        C  0.04193806  0.84645200  0.25927724     0.10740
C400        C  0.99680689  0.83719958  0.21944095    -0.06380
C401        C  0.95028499  0.80047406  0.23947727    -0.17610
C402        C  0.95586150  0.76542988  0.28809793     0.10770
S403        S  0.04924957  0.91587670  0.29427474    -0.32580
S404        S  0.89306120  0.72584186  0.31370091    -0.32590
H405        H  0.92364883  0.67915285  0.33389948     0.28780
H406        H  0.99894091  0.93753547  0.27068460     0.28780
H407        H  0.09127558  0.80955226  0.32538354     0.19370
H408        H  0.91277408  0.79245916  0.21255548     0.19380
C409        C  0.72602751  0.66988853  0.47847994    -0.06450
C410        C  0.76164880  0.67206832  0.52750135    -0.17580
C411        C  0.80920405  0.71137104  0.53258407     0.10740
C412        C  0.82854356  0.74532358  0.48546562    -0.06380
C413        C  0.79998648  0.73626976  0.43327480    -0.17610
C414        C  0.75043673  0.69875110  0.42815548     0.10770
S415        S  0.84700894  0.71658509  0.60029493    -0.32580
S416        S  0.71407093  0.69991001  0.35929071    -0.32590
H417        H  0.75942661  0.72584813  0.32654058     0.28780
H418        H  0.84609870  0.65652814  0.60780493     0.28780
H419        H  0.74793171  0.65003981  0.56565776     0.19370
H420        H  0.81626434  0.75997302  0.39639343     0.19380
C421        C  0.72879440  0.17724700  0.49625223    -0.06450
C422        C  0.69605007  0.18698971  0.44737778    -0.17580
C423        C  0.66141634  0.23457372  0.44293404     0.10740
C424        C  0.65503628  0.27390249  0.49118894    -0.06380
C425        C  0.67671327  0.25388551  0.54425149    -0.17610
C426        C  0.71761112  0.21106478  0.54544104     0.10770
S427        S  0.62990461  0.23767449  0.37274793    -0.32580
S428        S  0.76121229  0.20806118  0.60834645    -0.32590
H429        H  0.80369426  0.17447953  0.58244366     0.28780
H430        H  0.64212955  0.29437187  0.35890531     0.28780
H431        H  0.69646562  0.15610242  0.41190241     0.19370
H432        H  0.67301649  0.27978666  0.58325565     0.19380
C433        C  0.72954462  0.83736199  0.51422115    -0.06450
C434        C  0.70374679  0.82077696  0.46179393    -0.17580
C435        C  0.66075973  0.77619165  0.45805997     0.10740
C436        C  0.65248126  0.73464978  0.50225275    -0.06380
C437        C  0.67428786  0.75515039  0.55668325    -0.17610
C438        C  0.71075447  0.80543127  0.56289882     0.10770
S439        S  0.60653848  0.78720132  0.40665528    -0.32580
S440        S  0.73344756  0.82590919  0.63395352    -0.32590
H441        H  0.70972899  0.88033928  0.62884407     0.28780
H442        H  0.64178153  0.81659241  0.36567829     0.28780
H443        H  0.71000517  0.84950274  0.42552002     0.19370
H444        H  0.66939090  0.72828364  0.59402593     0.19380
C445        C  0.76484590  0.01621067  0.68073507    -0.06450
C446        C  0.79216432  0.96595047  0.69278168    -0.17580
C447        C  0.82216284  0.95838193  0.74359466     0.10740
C448        C  0.83453359  0.00570962  0.78283772    -0.06380
C449        C  0.81647722  0.05982568  0.76313936    -0.17610
C450        C  0.77819760  0.06433670  0.71647453     0.10770
S451        S  0.83152049  0.88363543  0.75245813    -0.32580
S452        S  0.73752264  0.12825984  0.71359007    -0.32590
H453        H  0.69460742  0.10517075  0.67617748     0.28780
H454        H  0.83043423  0.87374474  0.81061138     0.28780
H455        H  0.78927364  0.93093702  0.66147328     0.19370
H456        H  0.82299173  0.09762873  0.79018936     0.19380
C457        C  0.78251876  0.00193303  0.33877376    -0.06450
C458        C  0.78814002  0.94779051  0.31302238    -0.17580
C459        C  0.81986433  0.93989991  0.26121779     0.10740
C460        C  0.84522666  0.98812264  0.23014421    -0.06380
C461        C  0.84729231  0.04080453  0.26203134    -0.17610
C462        C  0.81702625  0.04791986  0.31485711     0.10770
S463        S  0.82605186  0.86665207  0.23743343    -0.32580
S464        S  0.82431394  0.11769870  0.34952003    -0.32590
H465        H  0.77306001  0.11158603  0.38158782     0.28780
H466        H  0.77846838  0.84233280  0.26839758     0.28780
H467        H  0.76951926  0.91065405  0.33541853     0.19370
H468        H  0.86598379  0.07927466  0.24284864     0.19380
C469        C  0.26581202  0.65600945  0.51952034    -0.06450
C470        C  0.23042022  0.65039650  0.47051538    -0.17580
C471        C  0.18533414  0.68793902  0.46053765     0.10740
C472        C  0.16762226  0.72726974  0.50348292    -0.06380
C473        C  0.19061529  0.72078081  0.55826920    -0.17610
C474        C  0.23826947  0.68599521  0.56777873     0.10770
S475        S  0.14716180  0.68190700  0.39334676    -0.32580
S476        S  0.25988469  0.68995885  0.64279377    -0.32590
H477        H  0.31693617  0.67384407  0.64150570     0.28780
H478        H  0.14016745  0.74155858  0.38860163     0.28500
H479        H  0.24115859  0.62110769  0.43682098     0.19370
H480        H  0.17087753  0.74326691  0.59443163     0.19380
C481        C  0.28280315  0.16399548  0.51390098    -0.06450
C482        C  0.28610131  0.19070288  0.46120568    -0.17580
C483        C  0.32242942  0.23875007  0.45145098     0.10740
C484        C  0.34983861  0.26921289  0.49880650    -0.06380
C485        C  0.35655326  0.23525068  0.54811643    -0.17610
C486        C  0.32308035  0.18414189  0.55655049     0.10770
S487        S  0.32939423  0.25609530  0.37683456    -0.32580
S488        S  0.33425813  0.14699039  0.62314630    -0.32590
H489        H  0.28171780  0.11518128  0.62172331     0.28780
H490        H  0.30042327  0.30711732  0.37767986     0.28780
H491        H  0.26207287  0.17248661  0.42601147     0.19370
H492        H  0.38212104  0.25069731  0.58384149     0.19380
C493        C  0.21772995  0.99612724  0.67718340    -0.06450
C494        C  0.19639484  0.04889331  0.69785066    -0.17580
C495        C  0.14890486  0.04915083  0.73646173     0.10740
C496        C  0.14018087  0.00173009  0.77314995    -0.06380
C497        C  0.15033435  0.94874262  0.74473070    -0.17610
C498        C  0.18626315  0.94586934  0.69587593     0.10770
S499        S  0.08458065  0.07474705  0.70468356    -0.32580
S500        S  0.17720697  0.88216451  0.65129877    -0.32590
H501        H  0.18016117  0.84421783  0.69766920     0.28780
H502        H  0.11248483  0.11590490  0.66868506     0.28780
H503        H  0.20575265  0.08758005  0.67354008     0.19370
H504        H  0.13382010  0.90900412  0.76194814     0.19380
C505        C  0.23127592  0.99442642  0.33749851    -0.06450
C506        C  0.21851749  0.94126174  0.31067869    -0.17580
C507        C  0.18572568  0.93590018  0.25967042     0.10740
C508        C  0.16347747  0.98673230  0.23264275    -0.06380
C509        C  0.16453711  0.03595070  0.26877674    -0.17610
C510        C  0.20038640  0.04124499  0.31716369     0.10770
S511        S  0.17718351  0.86121155  0.23585692    -0.32580
S512        S  0.20681870  0.11081076  0.35012458    -0.32590
H513        H  0.26702163  0.10589408  0.35663191     0.28780
H514        H  0.17934918  0.86339491  0.17622604     0.28780
H515        H  0.23373123  0.90273077  0.33056129     0.19370
H516        H  0.14392970  0.07410360  0.25562456     0.19380
C517        C  0.26773688  0.82657147  0.52139195    -0.06450
C518        C  0.27359542  0.80088489  0.46787890    -0.17580
C519        C  0.31167681  0.75693886  0.45806881     0.10740
C520        C  0.33996115  0.72813619  0.50385359    -0.06380
C521        C  0.34104575  0.76069449  0.55592632    -0.17610
C522        C  0.30523769  0.80837102  0.56522399     0.10770
S523        S  0.32260212  0.74554762  0.38414072    -0.32580
S524        S  0.30576482  0.84397935  0.63452894    -0.32590
H525        H  0.33873613  0.80413039  0.66366240     0.28780
H526        H  0.30172269  0.69078436  0.39204768     0.28780
H527        H  0.25208636  0.81944822  0.43139467     0.19370
H528        H  0.36290828  0.74437065  0.59241776     0.19380
C529        C  0.49148108  0.15374449  0.31295602    -0.06450
C530        C  0.45380590  0.18406536  0.28163015    -0.17580
C531        C  0.43984198  0.23960193  0.29780419     0.10740
C532        C  0.47055830  0.27121113  0.34409255    -0.06380
C533        C  0.49439082  0.23360591  0.38389625    -0.17610
C534        C  0.50545047  0.17575599  0.36916599     0.10770
S535        S  0.38742992  0.26493912  0.24987874    -0.32580
S536        S  0.53661484  0.13335355  0.42480681    -0.32590
H537        H  0.58472218  0.11802325  0.39082222     0.28780
H538        H  0.35268540  0.21362755  0.24635628     0.28780
H539        H  0.43575463  0.16431048  0.24263451     0.19370
H540        H  0.50291134  0.24674412  0.42738061     0.19380
C541        C  0.67993671  0.99310544  0.24040096    -0.06450
C542        C  0.69461465  0.94428059  0.20731016    -0.17580
C543        C  0.73387700  0.94886376  0.16027475     0.10740
C544        C  0.77358907  0.99668226  0.15730721    -0.06380
C545        C  0.75198684  0.04803195  0.18251534    -0.17610
C546        C  0.70791126  0.04620114  0.22510724     0.10770
S547        S  0.70146883  0.92303659  0.09399058    -0.32580
S548        S  0.68890080  0.11346071  0.25902437    -0.32590
H549        H  0.66491970  0.08866850  0.30946164     0.28780
H550        H  0.72213998  0.96982667  0.06062021     0.28780
H551        H  0.66484861  0.90722844  0.20814875     0.19370
H552        H  0.77629954  0.08854568  0.17800082     0.19380
C553        C  0.33741705  0.99065863  0.24356606    -0.06450
C554        C  0.31764901  0.04527172  0.23180178    -0.17580
C555        C  0.26998764  0.05336676  0.19539239     0.10740
C556        C  0.24022163  0.00501835  0.16620077    -0.06380
C557        C  0.26999329  0.95285738  0.16928651    -0.17610
C558        C  0.31264471  0.94420320  0.21128605     0.10770
S559        S  0.25492782  0.12840308  0.18741438    -0.32580
S560        S  0.33078749  0.87143595  0.22754317    -0.32590
H561        H  0.34208371  0.88388921  0.28609878     0.28780
H562        H  0.19641574  0.12791719  0.20173340     0.28780
H563        H  0.34084448  0.08267070  0.25019496     0.19370
H564        H  0.25244354  0.91497984  0.14816469     0.19380
C565        C  0.50253771  0.81821178  0.26455506    -0.06450
C566        C  0.45675005  0.80135952  0.30300345    -0.17580
C567        C  0.46506538  0.76172874  0.34676816     0.10740
C568        C  0.50686891  0.71993699  0.33786994    -0.06380
C569        C  0.55408582  0.73687921  0.30012197    -0.17610
C570        C  0.55229629  0.78515644  0.26426793     0.10770
S571        S  0.45355630  0.79331502  0.41764324    -0.32580
S572        S  0.61280101  0.79949069  0.21631016    -0.32590
H573        H  0.58092177  0.82847509  0.17522286     0.28780
H574        H  0.49516504  0.76317700  0.44700937     0.28780
H575        H  0.42166052  0.83035567  0.30983247     0.19370
H576        H  0.58977275  0.70846244  0.29379079     0.19380
C577        C  0.50498288  0.34188232  0.27392569    -0.06450
C578        C  0.54496772  0.29945802  0.25680080    -0.17580
C579        C  0.53737546  0.26573052  0.20670242     0.10740
C580        C  0.49859555  0.28244131  0.16502579    -0.06380
C581        C  0.47135146  0.33558523  0.17470758    -0.17610
C582        C  0.47516093  0.36633764  0.22763774     0.10770
S583        S  0.57161289  0.19766431  0.20310816    -0.32580
S584        S  0.46887194  0.44265375  0.22041537    -0.32590
H585        H  0.52908181  0.45227398  0.21264917     0.28780
H586        H  0.52948746  0.16952016  0.16832783     0.28780
H587        H  0.57257237  0.28281514  0.28871584     0.19370
H588        H  0.44979160  0.35534840  0.13912308     0.19380
C589        C  0.67796318  0.22858084  0.99861589    -0.06450
C590        C  0.70432671  0.21425180  0.94646569    -0.17580
C591        C  0.75331050  0.18006294  0.94406426     0.10740
C592        C  0.77611554  0.15599342  0.99649256    -0.06380
C593        C  0.73973727  0.15988799  0.04538226    -0.17610
C594        C  0.69679765  0.20092613  0.04839659     0.10770
S595        S  0.78750196  0.17485690  0.87342930    -0.32580
S596        S  0.67521575  0.22480193  0.11881115    -0.32590
H597        H  0.65401934  0.27782923  0.10172408     0.28780
H598        H  0.74075390  0.19135768  0.83996076     0.28780
H599        H  0.68708437  0.23142110  0.90746171     0.19370
H600        H  0.75161862  0.14023711  0.08501535     0.19380
C601        C  0.23991487  0.15601744  0.99935472    -0.06450
C602        C  0.26284320  0.18235352  0.94871742    -0.17580
C603        C  0.30769039  0.22535423  0.95067092     0.10740
C604        C  0.33605176  0.23944636  0.00287674    -0.06380
C605        C  0.31916041  0.20610678  0.05133787    -0.17610
C606        C  0.27943681  0.15807014  0.04557188     0.10770
S607        S  0.32698432  0.26242339  0.88500943    -0.32580
S608        S  0.31079802  0.09002611  0.06069431    -0.32590
H609        H  0.35340669  0.11121962  0.09944652     0.28780
H610        H  0.34967449  0.31270508  0.91267610     0.28780
H611        H  0.23704289  0.18093444  0.91075823     0.19370
H612        H  0.34792205  0.20757086  0.08805516     0.19380
C613        C  0.50901467  0.27850869  0.82413949    -0.06450
C614        C  0.46723672  0.31851047  0.80889241    -0.17580
C615        C  0.47762568  0.35827959  0.76440644     0.10740
C616        C  0.51908385  0.34640215  0.72093842    -0.06380
C617        C  0.56322042  0.30975057  0.73882535    -0.17610
C618        C  0.55962952  0.27755663  0.78990312     0.10770
S619        S  0.47097993  0.43095420  0.79048110    -0.32580
S620        S  0.61864878  0.23222384  0.80583334    -0.32590
H621        H  0.58364137  0.18741885  0.82956920     0.28780
H622        H  0.52446967  0.44997706  0.76676494     0.28780
H623        H  0.43311434  0.32776793  0.83981498     0.19370
H624        H  0.59539006  0.29709727  0.70760928     0.19380
C625        C  0.50102178  0.17852051  0.72096627    -0.06450
C626        C  0.54327054  0.19459857  0.67825607    -0.17580
C627        C  0.53281838  0.23593261  0.63630876     0.10740
C628        C  0.49032798  0.27689289  0.64760910    -0.06380
C629        C  0.44349061  0.25593356  0.68331684    -0.17610
C630        C  0.44915946  0.20860129  0.72042483     0.10770
S631        S  0.54261607  0.20772635  0.56421621    -0.32580
S632        S  0.39087985  0.19222472  0.76966618    -0.32590
H633        H  0.42580451  0.17180320  0.81356482     0.28780
H634        H  0.49473451  0.23408752  0.54061305     0.28780
H635        H  0.57918323  0.16672719  0.67006181     0.19370
H636        H  0.40669383  0.28260502  0.69053240     0.19380
C637        C  0.67390935  0.00779547  0.78408128    -0.06450
C638        C  0.69306159  0.05236203  0.82276956    -0.17580
C639        C  0.73216027  0.04171677  0.86752163     0.10740
C640        C  0.76761821  0.99367880  0.86268319    -0.06380
C641        C  0.73739770  0.94558366  0.83725804    -0.17610
C642        C  0.69485393  0.95271946  0.79492034     0.10770
S643        S  0.69844370  0.05346972  0.93698802    -0.32580
S644        S  0.66999771  0.88977672  0.75537480    -0.32590
H645        H  0.65287422  0.91887326  0.70616008     0.28780
H646        H  0.72395084  0.00750205  0.96470737     0.28780
H647        H  0.66769813  0.09059700  0.82656764     0.19370
H648        H  0.75282941  0.90329109  0.84199468     0.19380
C649        C  0.33075255  0.00149375  0.75690015    -0.06450
C650        C  0.30758396  0.05434133  0.77158461    -0.17580
C651        C  0.25775649  0.05933707  0.80753760     0.10740
C652        C  0.22630898  0.00954647  0.83012998    -0.06380
C653        C  0.25418639  0.95764985  0.81944438    -0.17610
C654        C  0.30399805  0.95293608  0.78400818     0.10770
S655        S  0.23127934  0.13014652  0.81219782    -0.32580
S656        S  0.33138992  0.88229084  0.77577574    -0.32590
H657        H  0.37731270  0.89466947  0.73779057     0.28780
H658        H  0.28588297  0.15809244  0.81685578     0.28780
H659        H  0.32863204  0.09255618  0.75399008     0.19370
H660        H  0.23334615  0.91889859  0.83339206     0.19380
C661        C  0.52020814  0.72524323  0.65612307    -0.06450
C662        C  0.48154239  0.76399065  0.63437412    -0.17580
C663        C  0.47718603  0.81989021  0.65705321     0.10740
C664        C  0.50596079  0.83687680  0.70976930    -0.06380
C665        C  0.55078863  0.80223026  0.72575010    -0.17610
C666        C  0.56267383  0.75100450  0.69463982     0.10770
S667        S  0.44338300  0.86854555  0.60848600    -0.32580
S668        S  0.63034278  0.71797271  0.70779730    -0.32590
H669        H  0.65291572  0.75889409  0.74777212     0.28780
H670        H  0.41605221  0.90181884  0.65067683     0.28780
H671        H  0.45658542  0.75356415  0.59736594     0.19370
H672        H  0.57799050  0.81629347  0.76114025     0.19380
C673        C  0.47785613  0.64791667  0.26928315    -0.06450
C674        C  0.52148044  0.63053516  0.23028558    -0.17580
C675        C  0.53071534  0.65674195  0.17637710     0.10740
C676        C  0.49899990  0.70530980  0.16032149    -0.06380
C677        C  0.44986710  0.71519999  0.19228235    -0.17610
C678        C  0.43610890  0.68399802  0.24203705     0.10770
S679        S  0.57866595  0.62110339  0.12716542    -0.32580
S680        S  0.36420143  0.69728110  0.26449513    -0.32590
H681        H  0.37373016  0.67484016  0.31670896     0.28780
H682        H  0.60185798  0.67243815  0.10340305     0.28780
H683        H  0.55154827  0.59910381  0.24117070     0.19370
H684        H  0.41939488  0.74509624  0.17609445     0.19380
C685        C  0.50367033  0.72630263  0.82199683    -0.06450
C686        C  0.54394758  0.68346564  0.80900727    -0.17580
C687        C  0.53352073  0.64147130  0.76524490     0.10740
C688        C  0.49247383  0.65210980  0.72269697    -0.06380
C689        C  0.44565751  0.68548640  0.74236766    -0.17610
C690        C  0.45185309  0.72322584  0.79011731     0.10770
S691        S  0.53671701  0.56839494  0.78883278    -0.32580
S692        S  0.39123030  0.76502824  0.80987834    -0.32590
H693        H  0.42361744  0.80926984  0.83845488     0.28780
H694        H  0.57439713  0.57871663  0.83551521     0.28780
H695        H  0.57636291  0.67497396  0.84082120     0.19370
H696        H  0.40867605  0.69044982  0.71475447     0.19380
C697        C  0.33406579  0.78106579  0.99548155    -0.06450
C698        C  0.30540651  0.77836850  0.94357114    -0.17580
C699        C  0.25939736  0.81381726  0.93241947     0.10740
C700        C  0.23325881  0.84744187  0.97879514    -0.06380
C701        C  0.27076002  0.85820130  0.02568705    -0.17610
C702        C  0.32069920  0.82719187  0.03346070     0.10770
S703        S  0.23785240  0.80548259  0.85857047    -0.32580
S704        S  0.36733481  0.85031192  0.09185634    -0.32590
H705        H  0.38771564  0.79545389  0.10165954     0.28780
H706        H  0.19457026  0.84311035  0.86201791     0.28780
H707        H  0.32107304  0.74978878  0.91000041     0.19370
H708        H  0.25977832  0.88590905  0.06041898     0.19380
C709        C  0.77200755  0.83140552  0.00797380    -0.06450
C710        C  0.73674993  0.83611643  0.95916925    -0.17580
C711        C  0.68952019  0.79752942  0.94806037     0.10740
C712        C  0.67057318  0.75588812  0.98904113    -0.06380
C713        C  0.69781081  0.75895077  0.04260411    -0.17610
C714        C  0.74598243  0.79641488  0.05342530     0.10770
S715        S  0.65308803  0.80452901  0.88043807    -0.32580
S716        S  0.77452000  0.78991396  0.12480134    -0.32590
H717        H  0.77821083  0.84878042  0.13369605     0.28780
H718        H  0.63747883  0.74564276  0.87633472     0.28780
H719        H  0.75054510  0.86307257  0.92449359     0.19370
H720        H  0.67963467  0.73355462  0.07776490     0.19380
C721        C  0.16538542  0.48427397  0.26255394    -0.06450
C722        C  0.18391550  0.53735813  0.28395819    -0.17580
C723        C  0.23032946  0.54517767  0.32177193     0.10740
C724        C  0.26010733  0.49695256  0.34534540    -0.06380
C725        C  0.22960047  0.44333575  0.33428651    -0.17610
C726        C  0.18961026  0.43635115  0.28786754     0.10770
S727        S  0.24805542  0.62018517  0.32571268    -0.32580
S728        S  0.18379046  0.36810157  0.25042016    -0.32590
H729        H  0.15613545  0.38796644  0.20112095     0.28780
H730        H  0.30491568  0.61672455  0.33421820     0.28780
H731        H  0.16155941  0.57420163  0.26921256     0.19370
H732        H  0.24597823  0.40479514  0.35191929     0.19380
C733        C  0.01395174  0.66696509  0.20879769    -0.06450
C734        C  0.97004295  0.68318099  0.17078509    -0.17580
C735        C  0.97905235  0.72796833  0.13067122     0.10740
C736        C  0.02077326  0.77162191  0.14352974    -0.06380
C737        C  0.06995829  0.75145574  0.17234006    -0.17610
C738        C  0.06679982  0.70022987  0.20498878     0.10770
S739        S  0.98008866  0.70051908  0.05741018    -0.32580
S740        S  0.13085562  0.68197531  0.24203074    -0.32590
H741        H  0.10046212  0.65115410  0.28512006     0.28780
H742        H  0.03607967  0.72217016  0.04292091     0.28780
H743        H  0.93552153  0.65198319  0.16277450     0.19370
H744        H  0.10804536  0.77955981  0.17657773     0.19380
C745        C  0.01326156  0.22054815  0.16191191    -0.06450
C746        C  0.05111075  0.24625755  0.20414941    -0.17580
C747        C  0.03434562  0.29427392  0.23823564     0.10740
C748        C  0.98352407  0.32249458  0.22658977    -0.06380
C749        C  0.95112853  0.30199637  0.17883074    -0.17610
C750        C  0.97105041  0.25795298  0.14206614     0.10770
S751        S  0.07341711  0.31410208  0.30218031    -0.32580
S752        S  0.97595444  0.28264806  0.06894053    -0.32590
H753        H  0.03598547  0.27534311  0.06419960     0.28780
H754        H  0.02703875  0.33695502  0.33319245     0.28780
H755        H  0.08775221  0.22270791  0.21821954     0.19370
H756        H  0.91869472  0.32974902  0.16219718     0.19380
C757        C  0.82377104  0.50186280  0.26526532    -0.06450
C758        C  0.80317895  0.45427079  0.29803172    -0.17580
C759        C  0.76377776  0.46217101  0.34442749     0.10740
C760        C  0.72573541  0.50829280  0.34301097    -0.06380
C761        C  0.75209436  0.55825102  0.31813015    -0.17610
C762        C  0.79953414  0.55533452  0.27944057     0.10770
S763        S  0.79892769  0.45076342  0.41225137    -0.32580
S764        S  0.82572759  0.62150789  0.24790973    -0.32590
H765        H  0.86368122  0.59706462  0.20803936     0.28780
H766        H  0.77384154  0.49668382  0.44268954     0.28780
H767        H  0.82963973  0.41672627  0.29877878     0.19370
H768        H  0.72891825  0.59716611  0.31855007     0.19380
C769        C  0.99663245  0.65742116  0.79880776    -0.06450
C770        C  0.96719899  0.69303695  0.76411948    -0.17580
C771        C  0.94952632  0.74584687  0.78562774     0.10740
C772        C  0.97815710  0.77407864  0.83464181    -0.06380
C773        C  0.99725632  0.73405152  0.87405899    -0.17610
C774        C  0.00313302  0.67548791  0.85819017     0.10770
S775        S  0.88792460  0.77008170  0.74978734    -0.32580
S776        S  0.01267487  0.62677635  0.91745115    -0.32590
H777        H  0.06745732  0.60907292  0.89862263     0.28780
H778        H  0.86283275  0.71543933  0.73543756     0.28780
H779        H  0.95244269  0.67720465  0.72225621     0.19370
H780        H  0.00464325  0.74602376  0.91824657     0.19380
C781        C  0.00230018  0.32206260  0.78208471    -0.06450
C782        C  0.04423388  0.31519615  0.82513600    -0.17580
C783        C  0.03626618  0.27330353  0.86864340     0.10740
C784        C  0.99315331  0.22909662  0.86179363    -0.06380
C785        C  0.94428654  0.24609691  0.83092946    -0.17610
C786        C  0.95115422  0.28691710  0.78709476     0.10770
S787        S  0.04776166  0.29902535  0.94113508    -0.32580
S788        S  0.89707438  0.28475486  0.73299100    -0.32590
H789        H  0.93171632  0.31568624  0.69282133     0.28780
H790        H  0.07339375  0.35334086  0.92812079     0.28780
H791        H  0.07749774  0.34906360  0.83093451     0.19370
H792        H  0.90634482  0.21715297  0.82867697     0.19380
C793        C  0.73867169  0.51648762  0.64964359    -0.06450
C794        C  0.76994116  0.46600945  0.65403549    -0.17580
C795        C  0.80922960  0.45880550  0.69908073     0.10740
C796        C  0.83519778  0.50571778  0.72861785    -0.06380
C797        C  0.81746393  0.55986432  0.71315878    -0.17610
C798        C  0.76833388  0.56652726  0.67780061     0.10770
S799        S  0.81860315  0.38805249  0.72531016    -0.32580
S800        S  0.74696822  0.64046437  0.68233042    -0.32590
H801        H  0.69806008  0.64037651  0.64967007     0.28780
H802        H  0.83771683  0.40484298  0.78072403     0.28780
H803        H  0.75361617  0.42786065  0.63360331     0.19370
H804        H  0.84084812  0.59747112  0.73090143     0.19380
C805        C  0.72944558  0.50120278  0.16482896    -0.06450
C806        C  0.71582190  0.44829590  0.19017746    -0.17580
C807        C  0.67920172  0.44315685  0.23908713     0.10740
C808        C  0.65623490  0.49303804  0.26741860    -0.06380
C809        C  0.66238323  0.54436430  0.23558033    -0.17610
C810        C  0.69935356  0.54936667  0.18694188     0.10770
S811        S  0.66165457  0.37101548  0.26138505    -0.32580
S812        S  0.71138043  0.62117202  0.16007238    -0.32590
H813        H  0.70219736  0.60546926  0.10218157     0.28780
H814        H  0.70484524  0.34244788  0.23014158     0.28780
H815        H  0.73141678  0.40986425  0.16900462     0.19370
H816        H  0.64701328  0.58399523  0.25399963     0.19380
C817        C  0.72862323  0.50018091  0.82270869    -0.06450
C818        C  0.71298324  0.44796478  0.79648006    -0.17580
C819        C  0.68270309  0.44412008  0.74442539     0.10740
C820        C  0.66307534  0.49560705  0.71684934    -0.06380
C821        C  0.66710642  0.54561665  0.75199223    -0.17610
C822        C  0.70140257  0.54889436  0.80165135     0.10770
S823        S  0.67903423  0.37014633  0.71931351    -0.32580
S824        S  0.71123850  0.61825486  0.83403655    -0.32590
H825        H  0.76879413  0.60861349  0.84967979     0.28780
H826        H  0.68697980  0.37021027  0.66011171     0.28780
H827        H  0.72582904  0.40883133  0.81681721     0.19370
H828        H  0.65182307  0.58565941  0.73631212     0.19380
C829        C  0.77916959  0.66306408  0.99960518    -0.06450
C830        C  0.77876885  0.69349791  0.94879256    -0.17580
C831        C  0.81638537  0.74123166  0.93889303     0.10740
C832        C  0.84658457  0.76834212  0.98657827    -0.06380
C833        C  0.85294562  0.73326941  0.03442824    -0.17610
C834        C  0.82194099  0.68112131  0.04036546     0.10770
S835        S  0.81452217  0.77189176  0.86821799    -0.32580
S836        S  0.84273247  0.64015839  0.10092929    -0.32590
H837        H  0.80263192  0.59514396  0.09654680     0.28780
H838        H  0.76966822  0.73680657  0.84425890     0.28780
H839        H  0.74870344  0.67981376  0.91670381     0.19370
H840        H  0.87490683  0.74890851  0.07239117     0.19380
C841        C  0.78023323  0.32479430  0.99904895    -0.06450
C842        C  0.78958707  0.30376496  0.05435408    -0.17580
C843        C  0.82403380  0.25581997  0.06363396     0.10740
C844        C  0.85086915  0.22619597  0.01544351    -0.06380
C845        C  0.85366660  0.25844107  0.96406448    -0.17610
C846        C  0.81622314  0.30342563  0.95431057     0.10770
S847        S  0.83061247  0.23791489  0.13895962    -0.32580
S848        S  0.81534322  0.33193398  0.88238175    -0.32590
H849        H  0.75636654  0.34470718  0.88547763     0.28780
H850        H  0.81859806  0.17895930  0.13811575     0.28780
H851        H  0.77066164  0.32576986  0.09121478     0.19370
H852        H  0.87644682  0.24283522  0.92683796     0.19380
C853        C  0.27088772  0.49936876  0.66251367    -0.06450
C854        C  0.24607314  0.54839963  0.68817071    -0.17580
C855        C  0.20103380  0.54427733  0.72980353     0.10740
C856        C  0.17565098  0.48992161  0.74536977    -0.06380
C857        C  0.19517120  0.44177173  0.71408375    -0.17610
C858        C  0.23413516  0.44889224  0.66668836     0.10770
S859        S  0.17605739  0.61071564  0.76108100    -0.32580
S860        S  0.20256788  0.41955862  0.60157359    -0.32590
H861        H  0.21647451  0.46814158  0.56759505     0.28780
H862        H  0.15300206  0.58570194  0.81181011     0.28780
H863        H  0.26946268  0.58893455  0.68525130     0.19370
H864        H  0.16839772  0.40225832  0.71565328     0.19380
C865        C  0.27315421  0.49480694  0.17635082    -0.06450
C866        C  0.29298726  0.44283094  0.19448180    -0.17580
C867        C  0.32191704  0.43949962  0.24711257     0.10740
C868        C  0.33950937  0.49078853  0.27921775    -0.06380
C869        C  0.33569424  0.54185918  0.24802038    -0.17610
C870        C  0.29582834  0.54468551  0.20340390     0.10770
S871        S  0.32270168  0.36941967  0.27611198    -0.32580
S872        S  0.27059103  0.61283484  0.18430565    -0.32590
H873        H  0.21610629  0.59245456  0.16406741     0.28780
H874        H  0.29927511  0.33773255  0.22905194     0.28780
H875        H  0.28276760  0.40457712  0.16862386     0.19370
H876        H  0.35364485  0.58160051  0.26463796     0.19380
C877        C  0.23976430  0.68066967  0.01599864    -0.06450
C878        C  0.20728429  0.68759718  0.96667344    -0.17580
C879        C  0.16809760  0.73133012  0.96143549     0.10740
C880        C  0.16150503  0.77551323  0.00465370    -0.06380
C881        C  0.18673140  0.76117963  0.05833206    -0.17610
C882        C  0.22827540  0.71845495  0.06290404     0.10770
S883        S  0.12420763  0.71917851  0.90105573    -0.32580
S884        S  0.27658245  0.72772107  0.12248057    -0.32590
H885        H  0.32055142  0.69478614  0.09760450     0.28780
H886        H  0.13188128  0.77426685  0.88484038     0.28780
H887        H  0.20964233  0.65525782  0.93232327     0.19370
H888        H  0.18447622  0.79109559  0.09443479     0.19380
C889        C  0.17017566  0.22889176  0.01298932    -0.06450
C890        C  0.17163693  0.25948826  0.96031204    -0.17580
C891        C  0.20109661  0.31298366  0.95349414     0.10740
C892        C  0.23203097  0.33933441  0.99977835    -0.06380
C893        C  0.22506459  0.31401384  0.05394537    -0.17610
C894        C  0.19387873  0.26082884  0.06154614     0.10770
S895        S  0.20166804  0.34311969  0.88221483    -0.32580
S896        S  0.18510582  0.23661487  0.13459975    -0.32590
H897        H  0.22976368  0.27153161  0.15936971     0.28780
H898        H  0.17108412  0.39204714  0.89809769     0.28780
H899        H  0.15620516  0.23915299  0.92100757     0.19370
H900        H  0.24188555  0.33765497  0.09120626     0.19380
C901        C  0.28388057  0.51802289  0.83862845    -0.06450
C902        C  0.29426694  0.46282380  0.81714956    -0.17580
C903        C  0.32622597  0.45324734  0.76650770     0.10740
C904        C  0.34737756  0.50060759  0.73203573    -0.06380
C905        C  0.34622168  0.55552399  0.76041971    -0.17610
C906        C  0.31456867  0.56451856  0.81203686     0.10770
S907        S  0.33718186  0.37857092  0.75068283    -0.32580
S908        S  0.31130046  0.63750364  0.83920254    -0.32590
H909        H  0.30796203  0.62469634  0.89809925     0.28780
H910        H  0.30612513  0.38045910  0.70053373     0.28780
H911        H  0.27973741  0.42598262  0.84217691     0.19370
H912        H  0.36193730  0.59383577  0.73868691     0.19380
loop_ 
_geom_bond_atom_site_label_1 
_geom_bond_atom_site_label_2 
_geom_bond_distance 
_geom_bond_site_symmetry_2 
_ccdc_geom_bond_type 
O1            V9   1.965   1_556  S
O1           C11   1.287       .  A
O2            V9   1.945       .  S
O2           C12   1.280       .  A
O3            V9   1.844       .  S
O3           C13   1.244       .  A
O4            V9   1.836   1_556  S
O4           C14   1.241       .  A
O5           V10   1.970       .  S
O5           C14   1.288   1_554  A
O6           V10   1.971       .  S
O6           C13   1.287       .  A
O7           V10   1.802       .  S
O7           C12   1.236       .  A
O8           V10   1.821   1_556  S
O8           C11   1.238       .  A
V9           V10   2.067       .  T
C11         C901   1.470       .  S
C12         C865   1.443       .  S
C13         C877   1.484       .  S
C14         C892   1.483       .  S
C15         C269   1.588       .  S
C15         C301   1.594       .  S
C15         C853   1.599       .  S
C15         C904   1.582       .  S
O16          V24   1.973       .  S
O16          C26   1.289       .  A
O17          V24   1.983       .  S
O17          C27   1.292       .  A
O18          V24   1.814   1_554  S
O18          C28   1.232       .  A
O19          V24   1.823       .  S
O19          C29   1.236       .  A
O20          V25   1.971       .  S
O20          C29   1.288       .  A
O21          V25   1.983   1_554  S
O21          C28   1.293       .  A
O22          V25   1.806       .  S
O22          C27   1.231       .  A
O23          V25   1.784       .  S
O23          C26   1.228       .  A
V24          V25   2.075       .  T
C26         C829   1.462       .  S
C27         C841   1.481       .  S
C28         C805   1.480       .  S
C29         C817   1.477       .  S
C30         C314   1.592       .  S
C30         C328   1.580       .  S
C30         C793   1.605       .  S
C30         C820   1.581       .  S
O31          V39   1.972   1_655  S
O31          C41   1.293   1_655  A
O32          V39   1.977       .  S
O32          C42   1.291   1_455  A
O33          V39   1.826   1_655  S
O33          C43   1.241       .  A
O34          V39   1.824       .  S
O34          C44   1.240       .  A
O35          V40   1.981       .  S
O35          C44   1.293       .  A
O36          V40   1.983   1_655  S
O36          C43   1.292       .  A
O37          V40   1.826   1_655  S
O37          C42   1.239       .  A
O38          V40   1.813       .  S
O38          C41   1.229       .  A
V39          V40   2.033       .  T
C41         C769   1.485   1_455  S
C42         C781   1.479   1_655  S
C43         C796   1.486       .  S
C44         C856   1.483       .  S
O45          V53   1.976       .  S
O45          C55   1.289       .  A
O46          V53   1.973   1_455  S
O46          C56   1.289       .  A
O47          V53   1.819       .  S
O47          C57   1.237       .  A
O48          V53   1.840       .  S
O48          C58   1.243   1_655  A
O49          V54   1.992   1_455  S
O49          C58   1.294       .  A
O50          V54   1.970       .  S
O50          C57   1.289       .  A
O51          V54   1.819   1_455  S
O51          C56   1.235       .  A
O52          V54   1.825       .  S
O52          C55   1.237       .  A
V53          V54   2.070       .  T
C55         C757   1.483       .  S
C56         C721   1.474       .  S
C57         C748   1.486       .  S
C58         C733   1.513       .  S
C59         C276   1.579       .  S
C59         C319   1.597       .  S
C59         C760   1.595       .  S
C59         C808   1.582       .  S
C60         C283   1.578       .  S
C60         C292   1.576       .  S
C60         C724   1.606       .  S
C60         C868   1.582       .  S
O61          V69   1.979       .  S
O61          C71   1.291       .  A
O62          V69   1.964       .  S
O62          C72   1.288       .  A
O63          V69   1.799       .  S
O63          C73   1.231       .  A
O64          V69   1.800   1_554  S
O64          C74   1.231       .  A
O65          V70   1.973   1_554  S
O65          C74   1.291       .  A
O66          V70   1.977       .  S
O66          C73   1.290       .  A
O67          V70   1.797       .  S
O67          C72   1.231       .  A
O68          V70   1.790   1_554  S
O68          C71   1.229   1_554  A
V69          V70   2.066       .  T
C71         C712   1.465       .  S
C72         C697   1.460       .  S
C73         C685   1.470       .  S
C74         C676   1.478       .  S
C75         C303   1.597       .  S
C75         C330   1.579       .  S
C75         C661   1.594       .  S
C75         C688   1.580       .  S
O76          V84   1.982       .  S
O76          C86   1.292       .  A
O77          V84   1.993       .  S
O77          C87   1.295       .  A
O78          V84   1.794       .  S
O78          C88   1.231       .  A
O79          V84   1.796   1_565  S
O79          C89   1.226       .  A
O80          V85   1.999   1_565  S
O80          C89   1.297       .  A
O81          V85   1.997       .  S
O81          C88   1.296       .  A
O82          V85   1.816   1_565  S
O82          C87   1.232   1_565  A
O83          V85   1.822       .  S
O83          C86   1.235       .  A
V84          V85   2.065       .  T
C86         C637   1.490       .  S
C87         C649   1.491       .  S
C88         C625   1.499       .  S
C89         C664   1.499       .  S
O90          V98   1.972       .  S
O90         C100   1.289       .  A
O91          V98   1.969   1_554  S
O91         C101   1.288       .  A
O92          V98   1.822       .  S
O92         C102   1.239       .  A
O93          V98   1.827   1_554  S
O93         C103   1.240   1_554  A
O94          V99   1.965       .  S
O94         C103   1.287       .  A
O95          V99   1.976   1_554  S
O95         C102   1.289   1_554  A
O96          V99   1.814   1_554  S
O96         C101   1.236       .  A
O97          V99   1.821       .  S
O97         C100   1.240       .  A
V98          V99   2.060       .  T
C100        C613   1.486       .  S
C101        C580   1.474       .  S
C102        C604   1.478   1_556  S
C103        C589   1.473       .  S
C104        C267   1.593       .  S
C104        C310   1.602       .  S
C104        C616   1.592       .  S
C104        C628   1.597       .  S
O105        V113   1.969       .  S
O105        C115   1.287       .  A
O106        V113   1.955   1_545  S
O106        C116   1.290       .  A
O107        V113   1.829   1_545  S
O107        C117   1.240   1_545  A
O108        V113   1.824       .  S
O108        C118   1.238       .  A
O109        V114   1.983       .  S
O109        C118   1.292       .  A
O110        V114   1.968       .  S
O110        C117   1.287       .  A
O111        V114   1.820   1_545  S
O111        C116   1.232       .  A
O112        V114   1.801       .  S
O112        C115   1.240       .  A
V113        V114   2.056       .  T
C115        C565   1.479       .  S
C116        C529   1.481       .  S
C117        C541   1.477       .  S
C118        C553   1.483       .  S
C119        C287   1.591       .  S
C119        C321   1.599       .  S
C119        C568   1.572       .  S
C119        C673   1.615       .  S
C120        C274   1.611       .  S
C120        C294   1.589       .  S
C120        C532   1.633       .  S
C120        C577   1.594       .  S
O121        V129   1.969       .  S
O121        C131   1.289       .  A
O122        V129   1.966   1_545  S
O122        C132   1.289       .  A
O123        V129   1.821       .  S
O123        C133   1.235       .  A
O124        V129   1.793   1_545  S
O124        C134   1.230   1_545  A
O125        V130   1.972       .  S
O125        C134   1.289       .  A
O126        V130   1.984       .  S
O126        C133   1.293       .  A
O127        V130   1.798   1_545  S
O127        C132   1.231       .  A
O128        V130   1.799       .  S
O128        C131   1.232       .  A
V129        V130   2.070       .  T
C131        C517   1.463       .  S
C132        C481   1.463       .  S
C133        C505   1.485       .  S
C134        C493   1.460       .  S
C135        C285   1.608       .  S
C135        C305   1.573       .  S
C135        C469   1.598       .  S
C135        C520   1.593       .  S
O136        V144   1.960       .  S
O136        C146   1.285       .  A
O137        V144   1.978       .  S
O137        C147   1.291       .  A
O138        V144   1.821   1_565  S
O138        C148   1.240       .  A
O139        V144   1.811       .  S
O139        C149   1.235       .  A
O140        V145   1.959       .  S
O140        C149   1.285       .  A
O141        V145   1.984   1_565  S
O141        C148   1.291       .  A
O142        V145   1.839   1_565  S
O142        C147   1.240   1_565  A
O143        V145   1.829       .  S
O143        C146   1.239       .  A
V144        V145   2.070       .  T
C146        C445   1.467       .  S
C147        C457   1.489       .  S
C148        C433   1.491       .  S
C149        C421   1.460       .  S
C150        C323   1.592       .  S
C150        C332   1.608       .  S
C150        C409   1.581       .  S
C150        C436   1.606       .  S
O151        V159   1.968   1_455  S
O151        C161   1.286       .  A
O152        V159   1.960       .  S
O152        C162   1.287       .  A
O153        V159   1.798       .  S
O153        C163   1.233       .  A
O154        V159   1.804   1_455  S
O154        C164   1.233       .  A
O155        V160   1.973       .  S
O155        C164   1.288       .  A
O156        V160   1.973   1_655  S
O156        C163   1.287       .  A
O157        V160   1.808   1_655  S
O157        C162   1.232       .  A
O158        V160   1.810       .  S
O158        C161   1.237       .  A
V159        V160   2.079   1_655  T
C161        C397   1.478       .  S
C162        C385   1.463       .  S
C163        C412   1.470       .  S
C164        C472   1.471       .  S
O165        V173   1.978   1_455  S
O165        C175   1.290       .  A
O166        V173   1.977       .  S
O166        C176   1.291       .  A
O167        V173   1.805   1_455  S
O167        C177   1.235   1_455  A
O168        V173   1.807       .  S
O168        C178   1.234   1_655  A
O169        V174   1.979       .  S
O169        C178   1.291       .  A
O170        V174   1.970   1_655  S
O170        C177   1.289       .  A
O171        V174   1.804   1_655  S
O171        C176   1.234       .  A
O172        V174   1.801       .  S
O172        C175   1.234       .  A
V173        V174   2.057   1_655  T
C175        C337   1.474       .  S
C176        C373   1.482       .  S
C177        C361   1.476       .  S
C178        C349   1.485       .  S
C179        C278   1.548       .  S
C179        C312   1.604       .  S
C179        C376   1.605       .  S
C179        C424   1.569       .  S
C180        C265   1.569       .  S
C180        C296   1.587       .  S
C180        C340   1.593       .  S
C180        C484   1.576       .  S
C181        C195   1.586   1_455  S
C181        C256   1.597       .  S
C181        C364   1.575   1_455  S
C181        C745   1.604       .  S
C182        C197   1.592   1_565  S
C182        C224   1.600       .  S
C182        C460   1.594       .  S
C182        C544   1.585       .  S
C183        C204   1.587       .  S
C183        C222   1.602   1_455  S
C183        C400   1.575   1_455  S
C183        C736   1.591       .  S
C184        C206   1.576       .  S
C184        C260   1.596   1_565  S
C184        C508   1.588       .  S
C184        C556   1.596   1_565  S
C185        C229   1.612   1_655  S
C185        C247   1.587       .  S
C185        C388   1.595   1_655  S
C185        C772   1.620       .  S
C186        C213   1.584       .  S
C186        C231   1.606   1_545  S
C186        C496   1.570       .  S
C186        C652   1.602       .  S
C187        C211   1.575       .  S
C187        C240   1.591   1_455  S
C187        C352   1.584       .  S
C187        C784   1.582   1_455  S
C188        C238   1.580   1_565  S
C188        C249   1.562       .  S
C188        C448   1.573   1_565  S
C188        C640   1.598       .  S
C189        C215   1.599   1_554  S
C189        C258   1.593       .  S
C189        C601   1.587   1_554  S
C189        C889   1.591       .  S
C190        C202   1.607   1_556  S
C190        C233   1.580       .  S
C190        C700   1.594       .  S
C190        C880   1.604   1_556  S
C191        C193   1.581       .  S
C191        C242   1.557   1_554  S
C191        C592   1.578   1_554  S
C191        C844   1.586       .  S
C192        C220   1.572   1_556  S
C192        C251   1.575       .  S
C192        C709   1.590   1_556  S
C192        C832   1.564       .  S
C193        C194   1.422       .  A
C193        C198   1.425       .  A
C194        C195   1.410       .  A
C194        H199   1.062       .  S
C195        C196   1.428       .  A
C196        C197   1.417       .  A
C196        H200   1.079       .  S
C197        C198   1.439       .  A
C198        H201   1.081       .  S
C202        C203   1.427       .  A
C202        C207   1.432       .  A
C203        C204   1.425       .  A
C203        H208   1.078       .  S
C204        C205   1.409       .  A
C205        C206   1.429       .  A
C205        H209   1.071       .  S
C206        C207   1.431       .  A
C207        H210   1.080       .  S
C211        C212   1.421       .  A
C211        C216   1.421       .  A
C212        C213   1.413       .  A
C212        H217   1.078       .  S
C213        C214   1.430       .  A
C214        C215   1.437       .  A
C214        H218   1.082       .  S
C215        C216   1.431       .  A
C216        H219   1.074       .  S
C220        C221   1.427       .  A
C220        C225   1.424       .  A
C221        C222   1.415       .  A
C221        H226   1.076       .  S
C222        C223   1.446       .  A
C223        C224   1.440       .  A
C223        H227   1.078       .  S
C224        C225   1.413       .  A
C225        H228   1.075       .  S
C229        C230   1.433       .  A
C229        C234   1.430       .  A
C230        C231   1.436       .  A
C230        H235   1.081       .  S
C231        C232   1.416       .  A
C232        C233   1.435       .  A
C232        H236   1.082       .  S
C233        C234   1.432       .  A
C234        H237   1.067       .  S
C238        C239   1.436       .  A
C238        C243   1.406       .  A
C239        C240   1.434       .  A
C239        H244   1.080       .  S
C240        C241   1.419       .  A
C241        C242   1.406       .  A
C241        H245   1.081       .  S
C242        C243   1.415       .  A
C243        H246   1.073       .  S
C247        C248   1.427       .  A
C247        C252   1.424       .  A
C248        C249   1.429       .  A
C248        H253   1.073       .  S
C249        C250   1.421       .  A
C250        C251   1.407       .  A
C250        H254   1.081       .  S
C251        C252   1.420       .  A
C252        H255   1.075       .  S
C256        C257   1.430       .  A
C256        C261   1.429       .  A
C257        C258   1.428       .  A
C257        H262   1.078       .  S
C258        C259   1.423       .  A
C259        C260   1.429       .  A
C259        H263   1.072       .  S
C260        C261   1.432       .  A
C261        H264   1.069       .  S
C265        C266   1.413       .  A
C265        C270   1.418       .  A
C266        C267   1.421       .  A
C266        H271   1.079       .  S
C267        C268   1.428       .  A
C268        C269   1.437       .  A
C268        H272   1.066       .  S
C269        C270   1.418       .  A
C270        H273   1.072       .  S
C274        C275   1.444       .  A
C274        C279   1.421       .  A
C275        C276   1.434       .  A
C275        H280   1.076       .  S
C276        C277   1.400       .  A
C277        C278   1.405       .  A
C277        H281   1.070       .  S
C278        C279   1.422       .  A
C279        H282   1.059       .  S
C283        C284   1.431       .  A
C283        C288   1.418       .  A
C284        C285   1.432       .  A
C284        H289   1.081       .  S
C285        C286   1.439       .  A
C286        C287   1.431       .  A
C286        H290   1.063       .  S
C287        C288   1.414       .  A
C288        H291   1.081       .  S
C292        C293   1.433       .  A
C292        C297   1.423       .  A
C293        C294   1.408       .  A
C293        H298   1.059       .  S
C294        C295   1.421       .  A
C295        C296   1.427       .  A
C295        H299   1.077       .  S
C296        C297   1.427       .  A
C297        H300   1.082       .  S
C301        C302   1.423       .  A
C301        C306   1.422       .  A
C302        C303   1.434       .  A
C302        H307   1.082       .  S
C303        C304   1.422       .  A
C304        C305   1.424       .  A
C304        H308   1.075       .  S
C305        C306   1.430       .  A
C306        H309   1.081       .  S
C310        C311   1.417       .  A
C310        C315   1.425       .  A
C311        C312   1.435       .  A
C311        H316   1.065       .  S
C312        C313   1.435       .  A
C313        C314   1.424       .  A
C313        H317   1.082       .  S
C314        C315   1.436       .  A
C315        H318   1.078       .  S
C319        C320   1.428       .  A
C319        C324   1.431       .  A
C320        C321   1.431       .  A
C320        H325   1.078       .  S
C321        C322   1.437       .  A
C322        C323   1.415       .  A
C322        H326   1.076       .  S
C323        C324   1.427       .  A
C324        H327   1.081       .  S
C328        C329   1.423       .  A
C328        C333   1.442       .  A
C329        C330   1.414       .  A
C329        H334   1.068       .  S
C330        C331   1.426       .  A
C331        C332   1.426       .  A
C331        H335   1.082       .  S
C332        C333   1.433       .  A
C333        H336   1.082       .  S
C337        C338   1.392       .  A
C337        C342   1.411       .  A
C338        C339   1.414       .  A
C338        H347   1.085       .  S
C339        C340   1.462       .  A
C339        S343   1.804       .  S
C340        C341   1.406       .  A
C341        C342   1.399       .  A
C341        H348   1.064       .  S
C342        S344   1.792       .  S
S343        H346   1.378       .  S
S344        H345   1.403       .  S
C349        C350   1.392       .  A
C349        C354   1.426   1_455  A
C350        C351   1.416       .  A
C350        H359   1.082       .  S
C351        C352   1.447       .  A
C351        S355   1.802       .  S
C352        C353   1.406   1_455  A
C353        C354   1.390       .  A
C353        H360   1.067       .  S
C354        S356   1.807       .  S
S355        H358   1.406       .  S
S356        H357   1.394       .  S
C361        C362   1.416   1_655  A
C361        C366   1.411       .  A
C362        C363   1.394       .  A
C362        H371   1.084       .  S
C363        C364   1.403   1_455  A
C363        S367   1.795       .  S
C364        C365   1.423       .  A
C365        C366   1.407       .  A
C365        H372   1.081       .  S
C366        S368   1.795       .  S
S367        H370   1.404   1_455  S
S368        H369   1.404       .  S
C373        C374   1.383       .  A
C373        C378   1.417       .  A
C374        C375   1.409       .  A
C374        H383   1.078       .  S
C375        C376   1.457       .  A
C375        S379   1.786       .  S
C376        C377   1.405       .  A
C377        C378   1.395       .  A
C377        H384   1.055       .  S
C378        S380   1.789       .  S
S379        H382   1.367       .  S
S380        H381   1.393       .  S
C385        C386   1.376   1_655  A
C385        C390   1.424       .  A
C386        C387   1.392       .  A
C386        H395   1.086       .  S
C387        C388   1.449       .  A
C387        S391   1.771       .  S
C388        C389   1.410   1_455  A
C389        C390   1.409       .  A
C389        H396   1.063       .  S
C390        S392   1.808       .  S
S391        H394   1.374       .  S
S392        H393   1.404       .  S
C397        C398   1.414       .  A
C397        C402   1.409   1_455  A
C398        C399   1.406       .  A
C398        H407   1.085       .  S
C399        C400   1.407   1_455  A
C399        S403   1.795       .  S
C400        C401   1.421       .  A
C401        C402   1.409       .  A
C401        H408   1.081       .  S
C402        S404   1.784       .  S
S403        H406   1.404   1_455  S
S404        H405   1.407       .  S
C409        C410   1.409       .  A
C409        C414   1.449       .  A
C410        C411   1.403       .  A
C410        H419   1.066       .  S
C411        C412   1.413       .  A
C411        S415   1.803       .  S
C412        C413   1.392       .  A
C413        C414   1.413       .  A
C413        H420   1.078       .  S
C414        S416   1.812       .  S
S415        H418   1.407       .  S
S416        H417   1.406       .  S
C421        C422   1.395       .  A
C421        C426   1.401       .  A
C422        C423   1.396       .  A
C422        H431   1.082       .  S
C423        C424   1.442       .  A
C423        S427   1.792       .  S
C424        C425   1.424       .  A
C425        C426   1.400       .  A
C425        H432   1.082       .  S
C426        S428   1.784       .  S
S427        H430   1.376       .  S
S428        H429   1.401       .  S
C433        C434   1.400       .  A
C433        C438   1.413       .  A
C434        C435   1.406       .  A
C434        H443   1.085       .  S
C435        C436   1.423       .  A
C435        S439   1.766       .  S
C436        C437   1.430       .  A
C437        C438   1.417       .  A
C437        H444   1.076       .  S
C438        S440   1.784       .  S
S439        H442   1.408       .  S
S440        H441   1.405       .  S
C445        C446   1.383   1_545  A
C445        C450   1.406       .  A
C446        C447   1.389       .  A
C446        H455   1.081       .  S
C447        C448   1.436   1_565  A
C447        S451   1.773       .  S
C448        C449   1.423       .  A
C449        C450   1.412       .  A
C449        H456   1.077       .  S
C450        S452   1.791       .  S
S451        H454   1.369       .  S
S452        H453   1.407       .  S
C457        C458   1.393   1_545  A
C457        C462   1.420       .  A
C458        C459   1.411       .  A
C458        H467   1.084       .  S
C459        C460   1.440       .  A
C459        S463   1.790       .  S
C460        C461   1.418   1_565  A
C461        C462   1.412       .  A
C461        H468   1.075       .  S
C462        S464   1.799       .  S
S463        H466   1.407       .  S
S464        H465   1.392       .  S
C469        C470   1.407       .  A
C469        C474   1.460       .  A
C470        C471   1.408       .  A
C470        H479   1.061       .  S
C471        C472   1.408       .  A
C471        S475   1.798       .  S
C472        C473   1.394       .  A
C473        C474   1.412       .  A
C473        H480   1.085       .  S
C474        S476   1.813       .  S
S475        H478   1.407       .  S
S476        H477   1.383       .  S
C481        C482   1.377       .  A
C481        C486   1.425       .  A
C482        C483   1.387       .  A
C482        H491   1.064       .  S
C483        C484   1.435       .  A
C483        S487   1.784       .  S
C484        C485   1.411       .  A
C485        C486   1.403       .  A
C485        H492   1.070       .  S
C486        S488   1.805       .  S
S487        H490   1.384       .  S
S488        H489   1.394       .  S
C493        C494   1.413   1_565  A
C493        C498   1.419       .  A
C494        C495   1.406       .  A
C494        H503   1.080       .  S
C495        C496   1.407       .  A
C495        S499   1.792       .  S
C496        C497   1.413   1_545  A
C497        C498   1.397       .  A
C497        H504   1.065       .  S
C498        S500   1.797       .  S
S499        H502   1.408       .  S
S500        H501   1.403       .  S
C505        C506   1.395       .  A
C505        C510   1.414   1_565  A
C506        C507   1.411       .  A
C506        H515   1.085       .  S
C507        C508   1.459       .  A
C507        S511   1.815       .  S
C508        C509   1.405   1_565  A
C509        C510   1.402       .  A
C509        H516   1.072       .  S
C510        S512   1.777       .  S
S511        H514   1.383       .  S
S512        H513   1.409       .  S
C517        C518   1.374       .  A
C517        C522   1.422       .  A
C518        C519   1.388       .  A
C518        H527   1.088       .  S
C519        C520   1.439       .  A
C519        S523   1.745       .  S
C520        C521   1.413       .  A
C521        C522   1.421       .  A
C521        H528   1.071       .  S
C522        S524   1.794       .  S
S523        H526   1.355       .  S
S524        H525   1.407       .  S
C529        C530   1.363       .  A
C529        C534   1.426       .  A
C530        C531   1.386       .  A
C530        H539   1.086       .  S
C531        C532   1.463       .  A
C531        S535   1.775       .  S
C532        C533   1.411       .  A
C533        C534   1.413       .  A
C533        H540   1.066       .  S
C534        S536   1.807       .  S
S535        H538   1.410       .  S
S536        H537   1.408       .  S
C541        C542   1.409       .  A
C541        C546   1.415   1_565  A
C542        C543   1.411       .  A
C542        H551   1.078       .  S
C543        C544   1.412       .  A
C543        S547   1.799       .  S
C544        C545   1.425   1_565  A
C545        C546   1.408       .  A
C545        H552   1.081       .  S
C546        S548   1.805       .  S
S547        H550   1.407       .  S
S548        H549   1.407       .  S
C553        C554   1.397   1_565  A
C553        C558   1.408       .  A
C554        C555   1.414       .  A
C554        H563   1.085       .  S
C555        C556   1.453       .  A
C555        S559   1.803       .  S
C556        C557   1.420   1_545  A
C557        C558   1.414       .  A
C557        H564   1.067       .  S
C558        S560   1.803       .  S
S559        H562   1.386       .  S
S560        H561   1.407       .  S
C565        C566   1.420       .  A
C565        C570   1.407       .  A
C566        C567   1.399       .  A
C566        H575   1.083       .  S
C567        C568   1.407       .  A
C567        S571   1.808       .  S
C568        C569   1.435       .  A
C569        C570   1.407       .  A
C569        H576   1.083       .  S
C570        S572   1.797       .  S
S571        H574   1.400       .  S
S572        H573   1.406       .  S
C577        C578   1.426       .  A
C577        C582   1.419       .  A
C578        C579   1.398       .  A
C578        H587   1.069       .  S
C579        C580   1.394       .  A
C579        S583   1.796       .  S
C580        C581   1.421       .  A
C581        C582   1.410       .  A
C581        H588   1.085       .  S
C582        S584   1.794       .  S
S583        H586   1.404       .  S
S584        H585   1.408       .  S
C589        C590   1.388       .  A
C589        C594   1.410   1_556  A
C590        C591   1.408       .  A
C590        H599   1.080       .  S
C591        C592   1.457       .  A
C591        S595   1.812       .  S
C592        C593   1.405   1_556  A
C593        C594   1.403       .  A
C593        H600   1.075       .  S
C594        S596   1.786       .  S
S595        H598   1.405       .  S
S596        H597   1.407       .  S
C601        C602   1.417       .  A
C601        C606   1.413   1_556  A
C602        C603   1.408       .  A
C602        H611   1.067       .  S
C603        C604   1.409   1_556  A
C603        S607   1.801       .  S
C604        C605   1.415       .  A
C605        C606   1.419       .  A
C605        H612   1.084       .  S
C606        S608   1.805       .  S
S607        H610   1.407       .  S
S608        H609   1.408       .  S
C613        C614   1.417       .  A
C613        C618   1.404       .  A
C614        C615   1.406       .  A
C614        H623   1.084       .  S
C615        C616   1.412       .  A
C615        S619   1.795       .  S
C616        C617   1.423       .  A
C617        C618   1.409       .  A
C617        H624   1.076       .  S
C618        S620   1.800       .  S
S619        H622   1.402       .  S
S620        H621   1.405       .  S
C625        C626   1.423       .  A
C625        C630   1.411       .  A
C626        C627   1.406       .  A
C626        H635   1.085       .  S
C627        C628   1.413       .  A
C627        S631   1.799       .  S
C628        C629   1.427       .  A
C629        C630   1.416       .  A
C629        H636   1.081       .  S
C630        S632   1.785       .  S
S631        H634   1.405       .  S
S632        H633   1.405       .  S
C637        C638   1.418       .  A
C637        C642   1.412   1_545  A
C638        C639   1.413       .  A
C638        H647   1.085       .  S
C639        C640   1.412   1_545  A
C639        S643   1.800       .  S
C640        C641   1.416       .  A
C641        C642   1.412       .  A
C641        H648   1.066       .  S
C642        S644   1.790       .  S
S643        H646   1.407       .  S
S644        H645   1.403       .  S
C649        C650   1.394       .  A
C649        C654   1.414   1_545  A
C650        C651   1.419       .  A
C650        H659   1.077       .  S
C651        C652   1.441       .  A
C651        S655   1.778       .  S
C652        C653   1.406   1_545  A
C653        C654   1.411       .  A
C653        H660   1.055       .  S
C654        S656   1.788       .  S
S655        H658   1.398       .  S
S656        H657   1.393       .  S
C661        C662   1.396       .  A
C661        C666   1.438       .  A
C662        C663   1.399       .  A
C662        H671   1.058       .  S
C663        C664   1.438       .  A
C663        S667   1.812       .  S
C664        C665   1.393       .  A
C665        C666   1.415       .  A
C665        H672   1.077       .  S
C666        S668   1.799       .  S
S667        H670   1.397       .  S
S668        H669   1.405       .  S
C673        C674   1.411       .  A
C673        C678   1.458       .  A
C674        C675   1.407       .  A
C674        H683   1.063       .  S
C675        C676   1.426       .  A
C675        S679   1.795       .  S
C676        C677   1.372       .  A
C677        C678   1.397       .  A
C677        H684   1.082       .  S
C678        S680   1.771       .  S
S679        H682   1.403       .  S
S680        H681   1.348       .  S
C685        C686   1.415       .  A
C685        C690   1.412       .  A
C686        C687   1.411       .  A
C686        H695   1.082       .  S
C687        C688   1.407       .  A
C687        S691   1.795       .  S
C688        C689   1.422       .  A
C689        C690   1.405       .  A
C689        H696   1.084       .  S
C690        S692   1.786       .  S
S691        H694   1.407       .  S
S692        H693   1.406       .  S
C697        C698   1.378       .  A
C697        C702   1.416   1_556  A
C698        C699   1.399       .  A
C698        H707   1.083       .  S
C699        C700   1.457       .  A
C699        S703   1.792       .  S
C700        C701   1.409   1_556  A
C701        C702   1.399       .  A
C701        H708   1.057       .  S
C702        S704   1.800       .  S
S703        H706   1.355       .  S
S704        H705   1.398       .  S
C709        C710   1.409   1_554  A
C709        C714   1.449       .  A
C710        C711   1.405       .  A
C710        H719   1.063       .  S
C711        C712   1.417       .  A
C711        S715   1.799       .  S
C712        C713   1.397   1_556  A
C713        C714   1.405       .  A
C713        H720   1.083       .  S
C714        S716   1.797       .  S
S715        H718   1.401       .  S
S716        H717   1.378       .  S
C721        C722   1.374       .  A
C721        C726   1.405       .  A
C722        C723   1.396       .  A
C722        H731   1.079       .  S
C723        C724   1.454       .  A
C723        S727   1.773       .  S
C724        C725   1.425       .  A
C725        C726   1.428       .  A
C725        H732   1.074       .  S
C726        S728   1.795       .  S
S727        H730   1.335       .  S
S728        H729   1.408       .  S
C733        C734   1.417   1_455  A
C733        C738   1.419       .  A
C734        C735   1.412       .  A
C734        H743   1.070       .  S
C735        C736   1.400   1_655  A
C735        S739   1.803       .  S
C736        C737   1.423       .  A
C737        C738   1.418       .  A
C737        H744   1.077       .  S
C738        S740   1.787       .  S
S739        H742   1.406   1_655  S
S740        H741   1.401       .  S
C745        C746   1.426       .  A
C745        C750   1.417   1_455  A
C746        C747   1.420       .  A
C746        H755   1.082       .  S
C747        C748   1.398   1_455  A
C747        S751   1.787       .  S
C748        C749   1.408       .  A
C749        C750   1.408       .  A
C749        H756   1.085       .  S
C750        S752   1.797       .  S
S751        H754   1.400       .  S
S752        H753   1.405   1_655  S
C757        C758   1.413       .  A
C757        C762   1.415       .  A
C758        C759   1.414       .  A
C758        H767   1.085       .  S
C759        C760   1.413       .  A
C759        S763   1.804       .  S
C760        C761   1.414       .  A
C761        C762   1.409       .  A
C761        H768   1.068       .  S
C762        S764   1.790       .  S
S763        H766   1.409       .  S
S764        H765   1.395       .  S
C769        C770   1.368       .  A
C769        C774   1.439   1_655  A
C770        C771   1.391       .  A
C770        H779   1.085       .  S
C771        C772   1.454       .  A
C771        S775   1.771       .  S
C772        C773   1.400       .  A
C773        C774   1.414   1_655  A
C773        H780   1.070   1_655  S
C774        S776   1.813       .  S
S775        H778   1.409       .  S
S776        H777   1.408       .  S
C781        C782   1.413       .  A
C781        C786   1.411   1_455  A
C782        C783   1.416       .  A
C782        H791   1.084       .  S
C783        C784   1.408   1_455  A
C783        S787   1.792       .  S
C784        C785   1.415       .  A
C785        C786   1.402       .  A
C785        H792   1.083       .  S
C786        S788   1.778       .  S
S787        H790   1.406       .  S
S788        H789   1.405       .  S
C793        C794   1.407       .  A
C793        C798   1.471       .  A
C794        C795   1.407       .  A
C794        H803   1.055       .  S
C795        C796   1.395       .  A
C795        S799   1.782       .  S
C796        C797   1.391       .  A
C797        C798   1.421       .  A
C797        H804   1.085       .  S
C798        S800   1.806       .  S
S799        H802   1.406       .  S
S800        H801   1.366       .  S
C805        C806   1.392       .  A
C805        C810   1.426       .  A
C806        C807   1.408       .  A
C806        H815   1.084       .  S
C807        C808   1.439       .  A
C807        S811   1.789       .  S
C808        C809   1.412       .  A
C809        C810   1.408       .  A
C809        H816   1.079       .  S
C810        S812   1.798       .  S
S811        H814   1.407       .  S
S812        H813   1.400       .  S
C817        C818   1.384       .  A
C817        C822   1.412       .  A
C818        C819   1.400       .  A
C818        H827   1.083       .  S
C819        C820   1.455       .  A
C819        S823   1.803       .  S
C820        C821   1.408       .  A
C821        C822   1.403       .  A
C821        H828   1.077       .  S
C822        S824   1.773       .  S
S823        H826   1.381       .  S
S824        H825   1.409       .  S
C829        C830   1.382       .  A
C829        C834   1.420   1_556  A
C830        C831   1.399       .  A
C830        H839   1.059       .  S
C831        C832   1.436       .  A
C831        S835   1.796       .  S
C832        C833   1.398   1_556  A
C833        C834   1.388       .  A
C833        H840   1.071       .  S
C834        S836   1.788       .  S
S835        H838   1.404       .  S
S836        H837   1.370       .  S
C841        C842   1.400   1_556  A
C841        C846   1.416       .  A
C842        C843   1.415       .  A
C842        H851   1.084       .  S
C843        C844   1.448       .  A
C843        S847   1.809       .  S
C844        C845   1.415   1_554  A
C845        C846   1.405       .  A
C845        H852   1.070       .  S
C846        S848   1.802       .  S
S847        H850   1.385       .  S
S848        H849   1.406       .  S
C853        C854   1.415       .  A
C853        C858   1.421       .  A
C854        C855   1.410       .  A
C854        H863   1.068       .  S
C855        C856   1.419       .  A
C855        S859   1.807       .  S
C856        C857   1.409       .  A
C857        C858   1.418       .  A
C857        H864   1.085       .  S
C858        S860   1.795       .  S
S859        H862   1.407       .  S
S860        H861   1.409       .  S
C865        C866   1.381       .  A
C865        C870   1.393       .  A
C866        C867   1.401       .  A
C866        H875   1.083       .  S
C867        C868   1.440       .  A
C867        S871   1.770       .  S
C868        C869   1.404       .  A
C869        C870   1.396       .  A
C869        H876   1.064       .  S
C870        S872   1.772       .  S
S871        H874   1.406       .  S
S872        H873   1.408       .  S
C877        C878   1.389   1_554  A
C877        C882   1.415       .  A
C878        C879   1.395       .  A
C878        H887   1.088       .  S
C879        C880   1.433   1_556  A
C879        S883   1.749       .  S
C880        C881   1.429       .  A
C881        C882   1.414       .  A
C881        H888   1.081       .  S
C882        S884   1.789       .  S
S883        H886   1.342       .  S
S884        H885   1.408       .  S
C889        C890   1.420   1_554  A
C889        C894   1.438       .  A
C890        C891   1.401       .  A
C890        H899   1.076       .  S
C891        C892   1.412       .  A
C891        S895   1.802       .  S
C892        C893   1.398   1_556  A
C893        C894   1.415       .  A
C893        H900   1.083       .  S
C894        S896   1.797       .  S
S895        H898   1.404       .  S
S896        H897   1.407       .  S
C901        C902   1.396       .  A
C901        C906   1.411       .  A
C902        C903   1.397       .  A
C902        H911   1.080       .  S
C903        C904   1.434       .  A
C903        S907   1.794       .  S
C904        C905   1.426       .  A
C905        C906   1.410       .  A
C905        H912   1.076       .  S
C906        S908   1.802       .  S
S907        H910   1.374       .  S
S908        H909   1.401       .  S
