geometry optimzed in LAMMPS
_audit_creation_date              2020-11-30 
_audit_creation_method            'lammps2cif' 
_symmetry_space_group_name_H-M    'P1' 
_symmetry_Int_Tables_number       1 
_symmetry_cell_setting            triclinic 
loop_ 
_symmetry_equiv_pos_as_xyz 
  x,y,z 
_cell_length_a                    42.58136536 
_cell_length_b                    38.74795666929488 
_cell_length_c                    37.43040124452464 
_cell_angle_alpha                 89.94847581678606 
_cell_angle_beta                  91.76288610437955 
_cell_angle_gamma                 88.79179724151194 
loop_ 
_atom_site_label 
_atom_site_type_symbol 
_atom_site_fract_x 
_atom_site_fract_y 
_atom_site_fract_z 
_atom_site_charge 
O1          O  0.50190638  0.40939719  0.45020018    -0.81000
O2          O  0.49255151  0.53248702  0.56237413    -0.65700
O3          O  0.50088422  0.46255011  0.48910690    -1.12300
C4          C  0.55907271  0.55458186  0.44257357     1.05900
O5          O  0.51711412  0.57454734  0.53350837    -0.78900
O6          O  0.48277068  0.55236317  0.43914205    -0.66500
Ni7        Ni  0.51076592  0.41706643  0.50050706     1.34900
C8          C  0.47566723  0.52455899  0.42260509     0.84700
O9          O  0.46924839  0.46193647  0.55028396    -0.79400
O10         O  0.46697888  0.41531588  0.51348452    -0.89700
C11         C  0.49988731  0.56498926  0.55916656     0.84200
O12         O  0.52248391  0.42515665  0.55003501    -0.67900
O13         O  0.54187502  0.57261259  0.46372676    -0.87200
C14         C  0.54355852  0.44660872  0.55830863     0.85100
C15         C  0.45368196  0.43682415  0.53479811     1.06600
H16         H  0.54194219  0.52418997  0.50785355     0.38400
O17         O  0.52157095  0.52065710  0.49644104    -1.09800
O18         O  0.49057298  0.49683700  0.42950008    -0.66500
Ni19       Ni  0.52760134  0.48787797  0.46007904     1.26300
O20         O  0.53710848  0.47814651  0.55121227    -0.66700
O21         O  0.55411297  0.52184340  0.43496044    -0.79000
C22         C  0.52263610  0.41766972  0.42763780     0.84400
O23         O  0.53500221  0.44825680  0.42754552    -0.66200
Ni24       Ni  0.50252784  0.56280062  0.48562662     1.27400
Ni25       Ni  0.49732985  0.49414339  0.52667458     1.26100
H26         H  0.48032536  0.46274334  0.47745941     0.39000
O27         O  0.58081060  0.24053228  0.21213387    -0.81000
O28         O  0.46312521  0.20631493  0.30565385    -0.65700
O29         O  0.52663381  0.21802173  0.23298821    -1.12300
C30         C  0.44419399  0.29664871  0.19605356     1.05900
O31         O  0.42578529  0.24268480  0.28155377    -0.78900
O32         O  0.44399413  0.20749681  0.18621104    -0.66500
Ni33       Ni  0.56215779  0.23008007  0.25781598     1.34900
C34         C  0.46748474  0.20245222  0.16596864     0.84700
O35         O  0.52969717  0.17485124  0.29005489    -0.79400
O36         O  0.57330129  0.18263304  0.25726442    -0.89700
C37         C  0.43562387  0.22304469  0.30762346     0.84200
O38         O  0.54672732  0.27576653  0.26712751    -0.67900
O39         O  0.42682442  0.27513203  0.21276238    -0.87200
C40         C  0.53155565  0.27411723  0.29611894     0.85100
C41         C  0.55809824  0.16463599  0.27949223     1.06600
H42         H  0.47279497  0.26456055  0.25814917     0.38400
O43         O  0.47467604  0.24380501  0.24402214    -1.09800
O44         O  0.49261211  0.21924683  0.17193530    -0.66500
Ni45       Ni  0.50395483  0.25375092  0.20915215     1.26300
O46         O  0.51420611  0.24785813  0.30110409    -0.66700
O47         O  0.47400218  0.28984507  0.18979753    -0.79000
C48         C  0.57049020  0.25810339  0.18479355     0.84400
O49         O  0.54056346  0.26573410  0.17942523    -0.66200
Ni50       Ni  0.43521750  0.22849372  0.23284516     1.27400
Ni51       Ni  0.49827362  0.21069489  0.26973872     1.26100
H52         H  0.52919112  0.19772814  0.21821572     0.39000
C53         C  0.72737908  0.80111646  0.73657622     0.80100
N54         N  0.75593484  0.78601303  0.74483296    -0.78200
C55         C  0.75878793  0.76316135  0.77218403     0.82600
N56         N  0.73308125  0.75603326  0.79070381    -0.78100
C57         C  0.70487111  0.77098364  0.78294221     0.82700
N58         N  0.70196017  0.79436645  0.75615959    -0.79800
C59         C  0.76394858  0.96329568  0.94534946     0.80100
N60         N  0.74158860  0.94498555  0.96085472    -0.78200
C61         C  0.74853629  0.92434888  0.98938289     0.82600
N62         N  0.77844825  0.92271662  0.00292760    -0.78100
C63         C  0.80115732  0.94142519  0.98755615     0.82700
N64         N  0.79376565  0.96201904  0.95911385    -0.79800
C65         C  0.00105067  0.75855358  0.01325138     0.80100
N66         N  0.00751757  0.78514895  0.99137864    -0.78200
C67         C  0.01877939  0.81455238  0.00522381     0.82600
N68         N  0.02504562  0.81678853  0.04041922    -0.78100
C69         C  0.01895599  0.79093627  0.06285557     0.82700
N70         N  0.00559410  0.76172379  0.04941627    -0.79800
C71         C  0.97551660  0.97042619  0.85071673     0.80100
N72         N  0.00574712  0.97760367  0.84445585    -0.78200
C73         C  0.02082920  0.96211075  0.81712436     0.82600
N74         N  0.00493079  0.94068647  0.79430880    -0.78100
C75         C  0.97414669  0.93414690  0.80011383     0.82700
N76         N  0.96059393  0.94816759  0.82883641    -0.79800
N77         N  0.13218787  0.94865677  0.93920244    -0.36700
N78         N  0.17321119  0.95676260  0.85253247    -0.57300
N79         N  0.20362552  0.87689958  0.89647830    -0.36700
N80         N  0.15907190  0.87716526  0.95296712    -0.57300
C81         C  0.12034373  0.97471836  0.91863909     0.26900
C82         C  0.10812186  0.93516584  0.95617043     0.26900
C83         C  0.21388130  0.88043483  0.86236684     0.26900
C84         C  0.20891711  0.84424777  0.90891313     0.26900
C85         C  0.16514450  0.97541949  0.88068890     0.35500
C86         C  0.20085343  0.94155040  0.86113669     0.35500
C87         C  0.13796146  0.88371710  0.97852718     0.35500
C88         C  0.17797964  0.85095983  0.96500673     0.35500
C89         C  0.08904210  0.98048455  0.92595092    -0.22000
C90         C  0.08106615  0.95513142  0.94939727    -0.22000
C91         C  0.22617172  0.84854971  0.85234533    -0.22000
C92         C  0.22362314  0.82604268  0.88178629    -0.22000
C93         C  0.18943613  0.97425619  0.90643438    -0.23000
C94         C  0.21245383  0.95275481  0.89375743    -0.23000
C95         C  0.14291836  0.86139922  0.00688510    -0.23000
C96         C  0.16869027  0.84145763  0.99890865    -0.23000
C97         C  0.13331440  0.98276726  0.88577714    -0.18400
C98         C  0.10967150  0.90241619  0.97227133    -0.18400
C99         C  0.19965603  0.83180588  0.94379247    -0.18400
C100        C  0.21044584  0.91257791  0.84227706    -0.18400
H101        H  0.07286167  0.99789637  0.91185158     0.14500
H102        H  0.05737546  0.95042495  0.95733912     0.14500
H103        H  0.23616440  0.84215524  0.82690326     0.14500
H104        H  0.23106104  0.79917515  0.88268555     0.14500
H105        H  0.18923289  0.98369617  0.93323571     0.12800
H106        H  0.23323191  0.94330404  0.90835749     0.12800
H107        H  0.12862357  0.85892608  0.03014488     0.12800
H108        H  0.17839853  0.82117043  0.01563406     0.12800
H109        H  0.15401776  0.93659677  0.93724784     0.26100
H110        H  0.19290284  0.89638352  0.91084859     0.26100
N111        N  0.92788504  0.91482195  0.14273281    -0.36700
N112        N  0.93855355  0.85969880  0.19845180    -0.57300
N113        N  0.87363883  0.83733703  0.19669277    -0.36700
N114        N  0.86392777  0.89940867  0.15021980    -0.57300
C115        C  0.95866553  0.90750770  0.13926715     0.26900
C116        C  0.91695110  0.92726937  0.11073552     0.26900
C117        C  0.88888031  0.81545504  0.22057197     0.26900
C118        C  0.85032192  0.85584414  0.21316868     0.26900
C119        C  0.96683260  0.87417722  0.19530681     0.35500
C120        C  0.94313402  0.83092356  0.21818624     0.35500
C121        C  0.86003778  0.91705864  0.11946137     0.35500
C122        C  0.83521333  0.89130504  0.16094956     0.35500
C123        C  0.96826613  0.91890351  0.10643531    -0.22000
C124        C  0.94192272  0.93183558  0.08842769    -0.22000
C125        C  0.87465876  0.82045651  0.25319208    -0.22000
C126        C  0.85054352  0.84538952  0.24854635    -0.22000
C127        C  0.98851882  0.85684926  0.21761800    -0.23000
C128        C  0.97397192  0.82839601  0.23063675    -0.23000
C129        C  0.82818607  0.91989342  0.11024196    -0.23000
C130        C  0.81257611  0.90413357  0.13708127    -0.23000
C131        C  0.97604081  0.88399366  0.16112777    -0.18400
C132        C  0.88492813  0.92990586  0.09943659    -0.18400
C133        C  0.83000011  0.88225953  0.19629510    -0.18400
C134        C  0.92135608  0.80429524  0.21773031    -0.18400
H135        H  0.99154310  0.91603734  0.09597632     0.14500
H136        H  0.94086946  0.94061602  0.06095367     0.14500
H137        H  0.88285828  0.80976243  0.27860673     0.14500
H138        H  0.83587030  0.85571269  0.26924682     0.14500
H139        H  0.01348998  0.86116736  0.21916449     0.12800
H140        H  0.98527920  0.80728795  0.24532189     0.12800
H141        H  0.81711418  0.93286285  0.08743644     0.12800
H142        H  0.78751148  0.90329582  0.13992986     0.12800
H143        H  0.91520673  0.90814895  0.16478729     0.26100
H144        H  0.88034270  0.84080198  0.17047410     0.26100
N145        N  0.83876558  0.89562303  0.65751932    -0.36700
N146        N  0.89793227  0.90468740  0.61803882    -0.57300
N147        N  0.86568531  0.89222122  0.55085454    -0.36700
N148        N  0.80976692  0.87807291  0.59236390    -0.57300
C149        C  0.86144944  0.88628620  0.68163011     0.26900
C150        C  0.81217861  0.88065062  0.66716381     0.26900
C151        C  0.89642099  0.89558741  0.54211469     0.26900
C152        C  0.85187368  0.86625552  0.53150920     0.26900
C153        C  0.90145644  0.91726980  0.65149620     0.35500
C154        C  0.91125895  0.92760395  0.59618763     0.35500
C155        C  0.78428885  0.88792553  0.61032058     0.35500
C156        C  0.80090040  0.87609244  0.55782750     0.35500
C157        C  0.84932043  0.86508200  0.70737211    -0.22000
C158        C  0.81787316  0.86144670  0.69818900    -0.22000
C159        C  0.90225620  0.87189519  0.51512067    -0.22000
C160        C  0.87457717  0.85311791  0.50900133    -0.22000
C161        C  0.91632754  0.94840555  0.65152806    -0.23000
C162        C  0.92158636  0.95565083  0.61641316    -0.23000
C163        C  0.75866505  0.89272593  0.58703187    -0.23000
C164        C  0.76924396  0.88501544  0.55346972    -0.23000
C165        C  0.89147637  0.90024582  0.68190692    -0.18400
C166        C  0.78350522  0.88444169  0.64757286    -0.18400
C167        C  0.81897343  0.85664173  0.53414590    -0.18400
C168        C  0.91773446  0.91959502  0.55991026    -0.18400
H169        H  0.86168612  0.85399410  0.73047451     0.14500
H170        H  0.80138121  0.84608668  0.71240420     0.14500
H171        H  0.92426029  0.86762889  0.50196983     0.14500
H172        H  0.87141335  0.83295004  0.48939651     0.14500
H173        H  0.92176529  0.96466148  0.67430549     0.12800
H174        H  0.93213080  0.97914954  0.60790799     0.12800
H175        H  0.73465334  0.89866818  0.59391951     0.12800
H176        H  0.75492207  0.88355588  0.52913694     0.12800
H177        H  0.84083169  0.91291890  0.63635140     0.26100
H178        H  0.85458377  0.90791555  0.56943917     0.26100
N179        N  0.89150742  0.66165389  0.87615450    -0.36700
N180        N  0.85523305  0.61215960  0.83309568    -0.57300
N181        N  0.87146381  0.55681966  0.88442075    -0.36700
N182        N  0.91069425  0.60715306  0.92443826    -0.57300
C183        C  0.88343018  0.68186448  0.84800633     0.26900
C184        C  0.91261849  0.67887743  0.89654522     0.26900
C185        C  0.85614868  0.53819697  0.85863778     0.26900
C186        C  0.88904201  0.53494831  0.90592897     0.26900
C187        C  0.84692491  0.64195898  0.81586679     0.35500
C188        C  0.83606925  0.58755894  0.81962110     0.35500
C189        C  0.92051210  0.63442985  0.94397455     0.35500
C190        C  0.91307738  0.57956759  0.94629473     0.35500
C191        C  0.89944080  0.71257056  0.85033929    -0.22000
C192        C  0.91816844  0.71058462  0.88095200    -0.22000
C193        C  0.86327589  0.50350829  0.86465062    -0.22000
C194        C  0.88398629  0.50147123  0.89424071    -0.22000
C195        C  0.82324890  0.63609496  0.79067130    -0.23000
C196        C  0.81687301  0.60188042  0.79240964    -0.23000
C197        C  0.92941741  0.62402098  0.97828609    -0.23000
C198        C  0.92447945  0.58944365  0.97983316    -0.23000
C199        C  0.85905788  0.67509085  0.82303816    -0.18400
C200        C  0.92458603  0.66789933  0.93031123    -0.18400
C201        C  0.90935104  0.54497455  0.93553082    -0.18400
C202        C  0.83600181  0.55211565  0.83021705    -0.18400
H203        H  0.89712218  0.73444591  0.83237706     0.14500
H204        H  0.93309536  0.73077149  0.89124912     0.14500
H205        H  0.85489138  0.48191731  0.84900798     0.14500
H206        H  0.89441420  0.47805532  0.90556891     0.14500
H207        H  0.81166033  0.65450936  0.77266748     0.12800
H208        H  0.79976880  0.58949797  0.77513034     0.12800
H209        H  0.93929514  0.63933339  0.99981642     0.12800
H210        H  0.92944619  0.57323972  0.00290549     0.12800
H211        H  0.88092163  0.63881340  0.88250874     0.26100
H212        H  0.86956745  0.58328454  0.88758508     0.26100
N213        N  0.63112625  0.79037195  0.95735628    -0.36700
N214        N  0.58495737  0.76412420  0.87332820    -0.57300
N215        N  0.54200203  0.83762316  0.91472367    -0.36700
N216        N  0.59080326  0.85294254  0.96833613    -0.57300
C217        C  0.64672208  0.76865403  0.93564085     0.26900
C218        C  0.65229097  0.81132291  0.97280578     0.26900
C219        C  0.53117619  0.82947037  0.88096546     0.26900
C220        C  0.53276908  0.87022378  0.92406203     0.26900
C221        C  0.59968425  0.75099489  0.90255022     0.35500
C222        C  0.55565664  0.77186506  0.88250145     0.35500
C223        C  0.61193722  0.85064880  0.99618681     0.35500
C224        C  0.56575136  0.87131005  0.98019833     0.35500
C225        C  0.67867986  0.77389886  0.93940572    -0.22000
C226        C  0.68227994  0.80114414  0.96255667    -0.22000
C227        C  0.51414492  0.85815798  0.86818540    -0.22000
C228        C  0.51476447  0.88349015  0.89536668    -0.22000
C229        C  0.57869260  0.74700872  0.92978946    -0.23000
C230        C  0.55042828  0.76069930  0.91697047    -0.23000
C231        C  0.60066130  0.86801368  0.02516943    -0.23000
C232        C  0.57121781  0.88017830  0.01556146    -0.23000
C233        C  0.63235310  0.75279061  0.90582039    -0.18400
C234        C  0.64381657  0.84094461  0.99277272    -0.18400
C235        C  0.54163112  0.88666845  0.95788321    -0.18400
C236        C  0.53871976  0.79691910  0.86303688    -0.18400
H237        H  0.69706167  0.76206070  0.92391469     0.14500
H238        H  0.70440316  0.81346486  0.96791748     0.14500
H239        H  0.50263226  0.86074496  0.84211823     0.14500
H240        H  0.50388235  0.90895634  0.89372247     0.14500
H241        H  0.58403892  0.73867380  0.95695865     0.12800
H242        H  0.52963063  0.76536974  0.93229847     0.12800
H243        H  0.61360873  0.87367883  0.04931805     0.12800
H244        H  0.55636416  0.89620192  0.03157197     0.12800
H245        H  0.60697316  0.79384966  0.95862119     0.26100
H246        H  0.55590796  0.82160198  0.93108439     0.26100
N247        N  0.84285555  0.09234506  0.89664468    -0.36700
N248        N  0.79899703  0.14358384  0.89811306    -0.57300
N249        N  0.84681815  0.19514994  0.88242539    -0.36700
N250        N  0.89402063  0.14077528  0.88475368    -0.57300
C251        C  0.81721465  0.07630104  0.90759523     0.26900
C252        C  0.86788704  0.07662787  0.91256247     0.26900
C253        C  0.82765156  0.21207457  0.90630852     0.26900
C254        C  0.87477362  0.21175292  0.87856585     0.26900
C255        C  0.77931893  0.11897466  0.88703344     0.35500
C256        C  0.78392834  0.17380832  0.89494778     0.35500
C257        C  0.90608316  0.10875733  0.87947177     0.35500
C258        C  0.90668059  0.16133721  0.86010185     0.35500
C259        C  0.82580834  0.05012264  0.93141398    -0.22000
C260        C  0.85813642  0.05059656  0.93496780    -0.22000
C261        C  0.84424645  0.24065643  0.91808691    -0.22000
C262        C  0.87312922  0.24095379  0.90017684    -0.22000
C263        C  0.75067642  0.13339634  0.87613218    -0.23000
C264        C  0.75351108  0.16853122  0.88166878    -0.23000
C265        C  0.92625721  0.10860337  0.85128193    -0.23000
C266        C  0.92603486  0.14166404  0.83835194    -0.23000
C267        C  0.78683391  0.08435410  0.89394327    -0.18400
C268        C  0.89794226  0.07949108  0.89912517    -0.18400
C269        C  0.90198472  0.19768597  0.85902929    -0.18400
C270        C  0.79528351  0.20192710  0.91459258    -0.18400
H271        H  0.81059726  0.03205918  0.94394490     0.14500
H272        H  0.87288273  0.03203304  0.94962514     0.14500
H273        H  0.83626968  0.25972254  0.93706093     0.14500
H274        H  0.89151747  0.25948790  0.90437976     0.14500
H275        H  0.72955528  0.12001290  0.86808429     0.12800
H276        H  0.73483324  0.18760535  0.87876696     0.12800
H277        H  0.93861997  0.08666383  0.84006283     0.12800
H278        H  0.93807480  0.14941835  0.81477405     0.12800
H279        H  0.84327796  0.11029137  0.87586596     0.26100
H280        H  0.84125666  0.17272935  0.86850483     0.26100
O281        O  0.18175512  0.50088617  0.21660062    -0.81000
O282        O  0.29723642  0.52316770  0.32204754    -0.65700
O283        O  0.23050463  0.50775582  0.25335716    -1.12300
C284        C  0.31421379  0.43336692  0.20946156     1.05900
O285        O  0.33656209  0.49095398  0.29733233    -0.78900
O286        O  0.31395685  0.51368943  0.19733006    -0.66500
Ni287      Ni  0.19082604  0.49411176  0.26679236     1.34900
C288        C  0.28866844  0.52166637  0.17939944     0.84700
O289        O  0.23030036  0.55216137  0.31006156    -0.79400
O290        O  0.18362392  0.54253474  0.28029826    -0.89700
C291        C  0.32458347  0.50676631  0.32436881     0.84200
O292        O  0.19838071  0.48297033  0.31709231    -0.67900
O293        O  0.33212529  0.45182538  0.23034103    -0.87200
C294        C  0.22264534  0.47409169  0.33606199     0.85100
C295        C  0.20094620  0.56171278  0.30089118     1.06600
H296        H  0.28774498  0.46367385  0.27525643     0.38400
O297        O  0.28477141  0.48471965  0.26158565    -1.09800
O298        O  0.26246312  0.51275290  0.19143832    -0.66500
Ni299      Ni  0.25444497  0.47551628  0.22594999     1.26300
O300        O  0.24979438  0.48014242  0.32407257    -0.66700
O301        O  0.28452967  0.44223991  0.20321890    -0.79000
C302        C  0.18942446  0.47596237  0.19589305     0.84400
O303        O  0.21835983  0.46483598  0.19395175    -0.66200
Ni304      Ni  0.32399902  0.49972423  0.24726425     1.27400
Ni305      Ni  0.26071903  0.51669963  0.28896055     1.26100
H306        H  0.22812489  0.52893529  0.23980836     0.39000
O307        O  0.32495931  0.30626456  0.52806041    -0.81000
O308        O  0.21454787  0.20180854  0.48178656    -0.65700
O309        O  0.27526311  0.27190973  0.50617632    -1.12300
C310        C  0.18605627  0.30394998  0.57625237     1.05900
O311        O  0.17085896  0.22187273  0.50943662    -0.78900
O312        O  0.18772099  0.31962027  0.48939830    -0.66500
Ni313      Ni  0.31379639  0.25786364  0.52813407     1.34900
C314        C  0.21184943  0.33856169  0.48573955     0.84700
O315        O  0.28321396  0.21568980  0.46277225    -0.79400
O316        O  0.32664438  0.24686940  0.47952470    -0.89700
C317        C  0.18615950  0.19704000  0.49376159     0.84200
O318        O  0.30480824  0.20953920  0.53376410    -0.67900
O319        O  0.16969498  0.28625517  0.55281744    -0.87200
C320        C  0.28056774  0.19935280  0.54891571     0.85100
C321        C  0.31297316  0.22488624  0.45842044     1.06600
H322        H  0.21602906  0.24740591  0.54306536     0.38400
O323        O  0.21989206  0.26078820  0.52192123    -1.09800
O324        O  0.23802882  0.32969033  0.50076922    -0.66500
Ni325      Ni  0.24796367  0.29450907  0.53791213     1.26300
O326        O  0.25455478  0.20731250  0.53468433    -0.66700
O327        O  0.21556514  0.31126691  0.57117257    -0.79000
C328        C  0.31095351  0.32918725  0.54727535     0.84400
O329        O  0.28129828  0.32649721  0.55466183    -0.66200
Ni330      Ni  0.18013013  0.27153145  0.50304526     1.27400
Ni331      Ni  0.24764654  0.23615160  0.49250969     1.26100
H332        H  0.27877530  0.28634494  0.48566833     0.39000
O333        O  0.56978311  0.75369382  0.70359597    -0.81000
O334        O  0.47349170  0.72428652  0.82778994    -0.65700
O335        O  0.52519781  0.73990744  0.74792749    -1.12300
C336        C  0.42745440  0.79035033  0.70669526     1.05900
O337        O  0.42716028  0.74824537  0.80820923    -0.78900
O338        O  0.43464021  0.71481426  0.71206518    -0.66500
Ni339      Ni  0.56275093  0.76400856  0.75460812     1.34900
C340        C  0.45658861  0.70391789  0.69257001     0.84700
O341        O  0.53893565  0.70615868  0.81015771    -0.79400
O342        O  0.57869483  0.71919239  0.77281285    -0.89700
C343        C  0.44456519  0.73413647  0.83322719     0.84200
O344        O  0.55889523  0.77918283  0.80503805    -0.67900
O345        O  0.41657538  0.77666197  0.73540902    -0.87200
C346        C  0.53492954  0.78628513  0.82381227     0.85100
C347        C  0.56715100  0.70018205  0.79762810     1.06600
H348        H  0.46664333  0.77848940  0.77126918     0.38400
O349        O  0.47009181  0.75573527  0.76143109    -1.09800
O350        O  0.48371522  0.71696414  0.69643544    -0.66500
Ni351      Ni  0.49304148  0.76178649  0.72008140     1.26300
O352        O  0.50875366  0.77530901  0.81324080    -0.66700
O353        O  0.45614797  0.78480452  0.69608320    -0.79000
C354        C  0.55104233  0.76207551  0.67688502     0.84400
O355        O  0.52136743  0.76900765  0.68117420    -0.66200
Ni356      Ni  0.43189932  0.73403731  0.75890292     1.27400
Ni357      Ni  0.50170434  0.73192460  0.78833523     1.26100
H358        H  0.52980026  0.71774874  0.73714480     0.39000
O359        O  0.31780300  0.77353307  0.00073822    -0.81000
O360        O  0.21881138  0.66032632  0.95524656    -0.65700
O361        O  0.27374636  0.73345151  0.98548409    -1.12300
C362        C  0.18230999  0.75738952  0.04646119     1.05900
O363        O  0.17476001  0.67920555  0.98204796    -0.78900
O364        O  0.18406786  0.77604291  0.96271416    -0.66500
Ni365      Ni  0.31171500  0.72545948  0.01004178     1.34900
C366        C  0.20713369  0.79588793  0.95862599     0.84700
O367        O  0.28375699  0.67805896  0.94279850    -0.79400
O368        O  0.32509520  0.71028943  0.96312975    -0.89700
C369        C  0.18970049  0.65647085  0.96401552     0.84200
O370        O  0.30728559  0.67800025  0.02551768    -0.67900
O371        O  0.16743390  0.73946461  0.02257593    -0.87200
C372        C  0.28401027  0.65830851  0.02939870     0.85100
C373        C  0.31184670  0.69027710  0.93965635     1.06600
H374        H  0.21601785  0.70574653  0.01898714     0.38400
O375        O  0.21922862  0.71947255  0.99788424    -1.09800
O376        O  0.23395917  0.78841893  0.97290912    -0.66500
Ni377      Ni  0.24412022  0.75658233  0.01293398     1.26300
O378        O  0.25822925  0.66489714  0.01235704    -0.66700
O379        O  0.20882334  0.77294256  0.04082701    -0.79000
C380        C  0.30495805  0.79490092  0.02218789     0.84400
O381        O  0.27542322  0.79171249  0.03055866    -0.66200
Ni382      Ni  0.18048318  0.72771184  0.97469216     1.27400
Ni383      Ni  0.24900097  0.69593199  0.97102715     1.26100
H384        H  0.27706087  0.74701778  0.96422108     0.39000
O385        O  0.07314910  0.46195001  0.05064185    -0.81000
O386        O  0.96020248  0.52451635  0.95576770    -0.65700
O387        O  0.02373017  0.48304373  0.01613033    -1.12300
C388        C  0.93596753  0.41270235  0.03546998     1.05900
O389        O  0.91706552  0.50230495  0.98152262    -0.78900
O390        O  0.95453730  0.52387153  0.04125413    -0.66500
Ni391      Ni  0.06128041  0.46400457  0.00072605     1.34900
C392        C  0.97021480  0.51612441  0.06987240     0.84700
O393        O  0.02717830  0.53577351  0.97105814    -0.79400
O394        O  0.07337746  0.51241334  0.99442792    -0.89700
C395        C  0.93000453  0.52056049  0.95736773     0.84200
O396        O  0.05097592  0.45956332  0.95049854    -0.67900
O397        O  0.92002603  0.43654772  0.01844774    -0.87200
C398        C  0.02541885  0.45928500  0.93196677     0.85100
C399        C  0.05692306  0.53815685  0.98105889     1.06600
H400        H  0.96356258  0.45187963  0.98214438     0.38400
O401        O  0.96856038  0.46885212  0.00021620    -1.09800
O402        O  0.98500917  0.48652236  0.07131453    -0.66500
Ni403      Ni  0.99665927  0.45124279  0.03469184     1.26300
O404        O  0.00084549  0.47390419  0.94301619    -0.66700
O405        O  0.96430479  0.41831299  0.04887838    -0.79000
C406        C  0.05927560  0.44213031  0.07249050     0.84400
O407        O  0.02982216  0.43387672  0.06825189    -0.66200
Ni408      Ni  0.93492482  0.48232375  0.02589069     1.27400
Ni409      Ni  0.99465613  0.50327656  0.98418147     1.26100
H410        H  0.02842808  0.50017354  0.03414904     0.39000
O411        O  0.20992114  0.07064318  0.76203204    -0.81000
O412        O  0.29498263  0.94823779  0.70139397    -0.65700
O413        O  0.23090020  0.01535876  0.72664325    -1.12300
C414        C  0.21172562  0.92089740  0.80238060     1.05900
O415        O  0.27831187  0.90424829  0.73587952    -0.78900
O416        O  0.18804777  0.91905927  0.71980470    -0.66500
Ni417      Ni  0.25089189  0.05267156  0.74524258     1.34900
C418        C  0.17048473  0.94582870  0.71315810     0.84700
O419        O  0.28014068  0.02278395  0.68213801    -0.79400
O420        O  0.24976285  0.06964469  0.69720854    -0.89700
C421        C  0.29725686  0.91630828  0.71317680     0.84200
O422        O  0.26299309  0.03070390  0.78944088    -0.67900
O423        O  0.22660878  0.90140634  0.78042938    -0.87200
C424        C  0.28986767  0.01624089  0.78432471     0.85100
C425        C  0.27111177  0.05541355  0.67772454     1.06600
H426        H  0.25797301  0.95317126  0.76636843     0.38400
O427        O  0.24421049  0.95580127  0.74546125    -1.09800
O428        O  0.18011720  0.97534361  0.72276431    -0.66500
Ni429      Ni  0.21291024  0.98580617  0.75943958     1.26300
O430        O  0.29365814  0.00008525  0.75429716    -0.66700
O431        O  0.19914099  0.95064455  0.79242428    -0.79000
C432        C  0.18658554  0.05480377  0.77583886     0.84400
O433        O  0.18434120  0.02155459  0.77596882    -0.66200
Ni434      Ni  0.23348106  0.91206172  0.72996027     1.27400
Ni435      Ni  0.26404958  0.98559917  0.71409600     1.26100
H436        H  0.21685268  0.02064689  0.70647099     0.39000
O437        O  0.81876041  0.79966021  0.50440781    -0.81000
O438        O  0.71491557  0.68885702  0.45771801    -0.65700
O439        O  0.77146855  0.76042359  0.48774927    -1.12300
C440        C  0.67883158  0.78921848  0.54918111     1.05900
O441        O  0.67150681  0.70499319  0.48652388    -0.78900
O442        O  0.68373287  0.80039655  0.46326932    -0.66500
Ni443      Ni  0.81078855  0.75024534  0.50941663     1.34900
C444        C  0.70568806  0.82207762  0.46156796     0.84700
O445        O  0.77871188  0.70607896  0.44424544    -0.79400
O446        O  0.82256818  0.73593696  0.46088537    -0.89700
C447        C  0.68578214  0.68400721  0.46567320     0.84200
O448        O  0.80575893  0.70151529  0.52026645    -0.67900
O449        O  0.66560771  0.76895366  0.52579339    -0.87200
C450        C  0.78231326  0.68194224  0.52351498     0.85100
C451        C  0.80761977  0.71483506  0.43969698     1.06600
H452        H  0.71370545  0.73226543  0.52335125     0.38400
O453        O  0.71685020  0.74619605  0.50238358    -1.09800
O454        O  0.73182755  0.81627757  0.47810703    -0.66500
Ni455      Ni  0.74256708  0.78301762  0.51695784     1.26300
O456        O  0.75535475  0.69195395  0.51247755    -0.66700
O457        O  0.70775537  0.80022350  0.54691584    -0.79000
C458        C  0.80318058  0.82296403  0.52161098     0.84400
O459        O  0.77434720  0.81756861  0.53160228    -0.66200
Ni460      Ni  0.67857645  0.75345268  0.47853941     1.27400
Ni461      Ni  0.74548343  0.72391726  0.47344663     1.26100
H462        H  0.77447906  0.77449821  0.46687073     0.39000
O463        O  0.96673065  0.72522940  0.33837247    -0.81000
O464        O  0.05430133  0.75958972  0.21336933    -0.65700
O465        O  0.99689342  0.73634101  0.28231699    -1.12300
C466        C  0.95699335  0.67691261  0.18006206     1.05900
O467        O  0.03360190  0.73852387  0.16156602    -0.78900
O468        O  0.94550926  0.75591209  0.18626513    -0.66500
Ni469      Ni  0.00993965  0.71693000  0.32603137     1.34900
C470        C  0.93590899  0.76758505  0.21597251     0.84700
O471        O  0.04580321  0.77770648  0.28523149    -0.79400
O472        O  0.02313624  0.76415903  0.33761670    -0.89700
C473        C  0.05586094  0.75366736  0.17964862     0.84200
O474        O  0.05335411  0.70371410  0.31637453    -0.67900
O475        O  0.97512300  0.69654241  0.16177246    -0.87200
C476        C  0.06843146  0.69821625  0.28793236     0.85100
C477        C  0.03890418  0.78483317  0.31803046     1.06600
H478        H  0.01413510  0.69998537  0.21281886     0.38400
O479        O  0.00243969  0.72087964  0.21816811    -1.09800
O480        O  0.94540750  0.75232010  0.24436914    -0.66500
Ni481      Ni  0.97190164  0.71033083  0.25102708     1.26300
O482        O  0.05656074  0.70898064  0.25826651    -0.66700
O483        O  0.95055555  0.68303032  0.21358396    -0.79000
C484        C  0.94423875  0.70869239  0.32302868     0.84400
O485        O  0.94401280  0.69955880  0.28946840    -0.66200
Ni486      Ni  0.98926564  0.74326659  0.17529776     1.27400
Ni487      Ni  0.02637685  0.74784205  0.24971152     1.26100
H488        H  0.98564205  0.75757146  0.28747792     0.39000
O489        O  0.41387175  0.95170411  0.01364295    -0.81000
O490        O  0.51335218  0.05666475  0.95748145    -0.65700
O491        O  0.46151104  0.98125633  0.98377959    -1.12300
C492        C  0.55284191  0.96256946  0.05905685     1.05900
O493        O  0.55676478  0.04248437  0.99182021    -0.78900
O494        O  0.55330116  0.94452012  0.97614867    -0.66500
Ni495      Ni  0.42399448  0.99938323  0.99857522     1.34900
C496        C  0.53160530  0.92285169  0.97086269     0.84700
O497        O  0.44843288  0.03034025  0.93476398    -0.79400
O498        O  0.40937586  0.99389380  0.94991793    -0.89700
C499        C  0.54257695  0.06176796  0.96829306     0.84200
O500        O  0.44209100  0.01550195  0.04333184    -0.67900
O501        O  0.56632218  0.98278866  0.03684278    -0.87200
C502        C  0.45313751  0.04591583  0.03844629     0.85100
C503        C  0.42257915  0.01284924  0.92651525     1.06600
H504        H  0.51514167  0.01670315  0.02451850     0.38400
O505        O  0.51382440  0.00137159  0.00419430    -1.09800
O506        O  0.50434272  0.92928170  0.98264779    -0.66500
Ni507      Ni  0.49058557  0.96402810  0.01823729     1.26300
O508        O  0.46686776  0.05158432  0.00856472    -0.66700
O509        O  0.52458031  0.95075599  0.05301325    -0.79000
C510        C  0.43151635  0.92639044  0.02596657     0.84400
O511        O  0.46153159  0.92927331  0.03217369    -0.66200
Ni512      Ni  0.55395904  0.99346064  0.98694060     1.27400
Ni513      Ni  0.48390517  0.01956119  0.97069509     1.26100
H514        H  0.45915296  0.96530291  0.96402772     0.39000
C515        C  0.26092253  0.78870128  0.32093640     0.80100
N516        N  0.26068527  0.75910584  0.34030310    -0.78200
C517        C  0.28070890  0.73276741  0.33313630     0.82600
N518        N  0.30100961  0.73574199  0.30619185    -0.78100
C519        C  0.30129338  0.76489958  0.28642200     0.82700
N520        N  0.28133200  0.79135363  0.29410877    -0.79800
N521        N  0.38034959  0.62142622  0.37970320    -0.36700
N522        N  0.43270781  0.58044118  0.37017580    -0.57300
N523        N  0.39943744  0.51587601  0.36227972    -0.36700
N524        N  0.34541493  0.56048239  0.39090748    -0.57300
C525        C  0.40306143  0.64520250  0.37948421     0.26900
C526        C  0.35751398  0.63365842  0.40070138     0.26900
C527        C  0.42308339  0.50786732  0.38698933     0.26900
C528        C  0.37423046  0.49602176  0.36833039     0.26900
C529        C  0.44592160  0.60896173  0.35796582     0.35500
C530        C  0.45488423  0.55565047  0.37058664     0.35500
C531        C  0.32374292  0.58269993  0.40329242     0.35500
C532        C  0.33075441  0.53054578  0.38508817     0.35500
C533        C  0.39430058  0.67346078  0.39979521    -0.22000
C534        C  0.36549938  0.66610114  0.41335590    -0.22000
C535        C  0.41307241  0.48158210  0.40853263    -0.22000
C536        C  0.38233359  0.47470211  0.39732584    -0.22000
C537        C  0.47704008  0.60208785  0.35024210    -0.23000
C538        C  0.48278472  0.56816341  0.35922374    -0.23000
C539        C  0.29573392  0.56592036  0.40781619    -0.23000
C540        C  0.29995949  0.53289758  0.39547793    -0.23000
C541        C  0.43159723  0.64153239  0.36150182    -0.18400
C542        C  0.32782478  0.61863823  0.40387290    -0.18400
C543        C  0.34243161  0.50703814  0.36048484    -0.18400
C544        C  0.45185753  0.52661540  0.39141948    -0.18400
H545        H  0.40752323  0.69660965  0.40482853     0.14500
H546        H  0.35204393  0.68285809  0.43049043     0.14500
H547        H  0.42555640  0.47044818  0.43153266     0.14500
H548        H  0.36654224  0.45810062  0.41112897     0.14500
H549        H  0.49475010  0.62033806  0.34395284     0.12800
H550        H  0.50502527  0.55459342  0.36050344     0.12800
H551        H  0.27439712  0.57603516  0.41828341     0.12800
H552        H  0.28208570  0.51356734  0.39238360     0.12800
H553        H  0.37959777  0.59923954  0.36410277     0.26100
H554        H  0.39896034  0.53617475  0.34392601     0.26100
C555        C  0.51492072  0.96916065  0.20521521     0.80100
N556        N  0.49013889  0.99034500  0.21229486    -0.78200
C557        C  0.49388319  0.01818100  0.23311756     0.82600
N558        N  0.52217550  0.02399026  0.24833266    -0.78100
C559        C  0.54724454  0.00295747  0.24340897     0.82700
N560        N  0.54353768  0.97471830  0.22181563    -0.79800
N561        N  0.61127348  0.95149121  0.40808676    -0.36700
N562        N  0.67076517  0.96915779  0.38159403    -0.57300
N563        N  0.70720438  0.90985255  0.40946787    -0.36700
N564        N  0.64715274  0.89014344  0.43558446    -0.57300
C565        C  0.60322417  0.97165350  0.37985167     0.26900
C566        C  0.58932683  0.92728836  0.40933921     0.26900
C567        C  0.72238254  0.91880714  0.37917767     0.26900
C568        C  0.71226024  0.87570585  0.41714670     0.26900
C569        C  0.65366360  0.99836495  0.37755257     0.35500
C570        C  0.70091196  0.97756229  0.37887524     0.35500
C571        C  0.61862631  0.88885946  0.45057943     0.35500
C572        C  0.66673798  0.87013281  0.45623990     0.35500
C573        C  0.57481896  0.96150484  0.36447708    -0.22000
C574        C  0.56602272  0.93326869  0.38316478    -0.22000
C575        C  0.73840483  0.88945896  0.36759006    -0.22000
C576        C  0.73254215  0.86257042  0.39180396    -0.22000
C577        C  0.67269449  0.02607009  0.37294154    -0.23000
C578        C  0.70299324  0.01305216  0.37428912    -0.23000
C579        C  0.61977164  0.86846780  0.48065067    -0.23000
C580        C  0.65027322  0.85731337  0.48470620    -0.23000
C581        C  0.62248438  0.99696817  0.36618039    -0.18400
C582        C  0.59071187  0.89930864  0.43278093    -0.18400
C583        C  0.69667952  0.85750785  0.44544540    -0.18400
C584        C  0.72131005  0.95340188  0.36381840    -0.18400
H585        H  0.56239207  0.97209237  0.34120183     0.14500
H586        H  0.54557004  0.91804195  0.37692639     0.14500
H587        H  0.75292714  0.88759699  0.34441612     0.14500
H588        H  0.74113038  0.83616764  0.38996372     0.14500
H589        H  0.66501231  0.05201865  0.36630883     0.12800
H590        H  0.72375066  0.02701383  0.36765087     0.12800
H591        H  0.60034461  0.86107737  0.49679983     0.12800
H592        H  0.65857141  0.83916179  0.50463520     0.12800
H593        H  0.63116750  0.95327415  0.42492379     0.26100
H594        H  0.69366221  0.92655371  0.42482356     0.26100
N595        N  0.42280854  0.81291690  0.13982290    -0.36700
N596        N  0.35838388  0.80713809  0.10360229    -0.57300
N597        N  0.37454814  0.85325790  0.04720131    -0.36700
N598        N  0.45527329  0.87740750  0.08191008    -0.57300
C599        C  0.40721347  0.79861401  0.16644569     0.26900
C600        C  0.45028163  0.82473007  0.15389339     0.26900
C601        C  0.34691221  0.84251746  0.03228589     0.26900
C602        C  0.38707339  0.87833483  0.02692591     0.26900
C603        C  0.35698848  0.78537859  0.13184444     0.35500
C604        C  0.33495502  0.79876120  0.07986254     0.35500
C605        C  0.46617790  0.84810022  0.09762152     0.35500
C606        C  0.43967132  0.86819578  0.05188213     0.35500
C607        C  0.42566687  0.79975282  0.19776065    -0.22000
C608        C  0.45245068  0.81719824  0.19001317    -0.22000
C609        C  0.34133790  0.86212077  0.00140348    -0.22000
C610        C  0.36620040  0.88531488  0.99854754    -0.22000
C611        C  0.33211835  0.76333886  0.12629605    -0.23000
C612        C  0.31879178  0.77114346  0.09343127    -0.23000
C613        C  0.46007015  0.82013738  0.07549202    -0.23000
C614        C  0.44250706  0.83287046  0.04670403    -0.23000
C615        C  0.37599749  0.78677499  0.16384115    -0.18400
C616        C  0.47055973  0.84607803  0.13513412    -0.18400
C617        C  0.41828082  0.89106041  0.03411059    -0.18400
C618        C  0.32796710  0.81489466  0.04587219    -0.18400
H619        H  0.41972068  0.79061800  0.22397936     0.14500
H620        H  0.47070691  0.82432109  0.20909932     0.14500
H621        H  0.32152772  0.85990475  0.98279343     0.14500
H622        H  0.36941927  0.90334005  0.97693917     0.14500
H623        H  0.32431657  0.74306217  0.14345831     0.12800
H624        H  0.29919863  0.75771320  0.08130732     0.12800
H625        H  0.46393221  0.79312275  0.08200845     0.12800
H626        H  0.43104915  0.81778006  0.02597758     0.12800
H627        H  0.41390181  0.81658593  0.11400809     0.26100
H628        H  0.38584400  0.84378035  0.07008037     0.26100
C629        C  0.25170488  0.01188447  0.46184511     0.80100
N630        N  0.24974966  0.98391712  0.48256626    -0.78200
C631        C  0.22178721  0.97188168  0.49169013     0.82600
N632        N  0.19494108  0.98771845  0.47900087    -0.78100
C633        C  0.19657572  0.01578108  0.45677244     0.82700
N634        N  0.22518349  0.02773182  0.44848273    -0.79800
C635        C  0.46003046  0.77279903  0.37130776     0.80100
N636        N  0.44026575  0.76956151  0.39891096    -0.78200
C637        C  0.44144446  0.79208207  0.42634618     0.82600
N638        N  0.46179143  0.81811230  0.42566068    -0.78100
C639        C  0.48212854  0.82130414  0.39910456     0.82700
N640        N  0.48193946  0.79775666  0.37221432    -0.79800
N641        N  0.32817152  0.83059427  0.57200255    -0.36700
N642        N  0.30437373  0.86765723  0.63151267    -0.57300
N643        N  0.35583581  0.84624767  0.67987962    -0.36700
N644        N  0.38327653  0.81138295  0.61934098    -0.57300
C645        C  0.30807958  0.85393648  0.55632285     0.26900
C646        C  0.35094425  0.82392859  0.54881174     0.26900
C647        C  0.34386388  0.87378344  0.69808468     0.26900
C648        C  0.38446092  0.83713286  0.69430557     0.26900
C649        C  0.27892348  0.86475713  0.60958630     0.35500
C650        C  0.29360574  0.87640426  0.66355875     0.35500
C651        C  0.38763375  0.79173047  0.58982733     0.35500
C652        C  0.40111756  0.79661233  0.64613852     0.35500
C653        C  0.31791005  0.86199125  0.52249365    -0.22000
C654        C  0.34514734  0.84293859  0.51767838    -0.22000
C655        C  0.36536205  0.88225485  0.72508684    -0.22000
C656        C  0.39074303  0.85889136  0.72299842    -0.22000
C657        C  0.25163734  0.87089461  0.62766355    -0.23000
C658        C  0.26090258  0.87831305  0.66202034    -0.23000
C659        C  0.40832684  0.76465205  0.59769093    -0.23000
C660        C  0.41685664  0.76775531  0.63306595    -0.23000
C661        C  0.28139423  0.86773654  0.57276374    -0.18400
C662        C  0.37584692  0.79997257  0.55497786    -0.18400
C663        C  0.40423786  0.80936936  0.68186163    -0.18400
C664        C  0.31322021  0.88916454  0.69119130    -0.18400
H665        H  0.30688358  0.87989957  0.50352259     0.14500
H666        H  0.35922326  0.84338000  0.49410670     0.14500
H667        H  0.36284450  0.90268291  0.74454596     0.14500
H668        H  0.41166471  0.85842179  0.74017170     0.14500
H669        H  0.22791253  0.87278201  0.61648036     0.12800
H670        H  0.24517702  0.88590973  0.68267012     0.12800
H671        H  0.41679704  0.74498796  0.57962753     0.12800
H672        H  0.43319971  0.75068183  0.64705282     0.12800
H673        H  0.32606421  0.81887411  0.59687699     0.26100
H674        H  0.34446626  0.83300159  0.65934668     0.26100
N675        N  0.38411393  0.09388537  0.37605050    -0.36700
N676        N  0.39955711  0.14751006  0.33299899    -0.57300
N677        N  0.36976850  0.20018018  0.37900724    -0.36700
N678        N  0.35545781  0.14409672  0.42590443    -0.57300
C679        C  0.40194557  0.07682320  0.35254051     0.26900
C680        C  0.38362353  0.07488085  0.40562783     0.26900
C681        C  0.39200338  0.21928714  0.36196393     0.26900
C682        C  0.35694695  0.21798586  0.40705126     0.26900
C683        C  0.39714927  0.12220188  0.30863305     0.35500
C684        C  0.40050476  0.17681345  0.31461905     0.35500
C685        C  0.34913038  0.11335987  0.44128204     0.35500
C686        C  0.33571119  0.16787199  0.44049923     0.35500
C687        C  0.41353315  0.04627746  0.36753991    -0.22000
C688        C  0.40125483  0.04470958  0.40124682    -0.22000
C689        C  0.39271635  0.25095035  0.37941788    -0.22000
C690        C  0.37054004  0.25039528  0.40688814    -0.22000
C691        C  0.39638694  0.13538332  0.27439578    -0.23000
C692        C  0.39963209  0.17008589  0.27828517    -0.23000
C693        C  0.32659284  0.11800959  0.46674956    -0.23000
C694        C  0.31834789  0.15196324  0.46648407    -0.23000
C695        C  0.40514156  0.08815682  0.31738484    -0.18400
C696        C  0.36106774  0.08037719  0.43115267    -0.18400
C697        C  0.33447939  0.20400583  0.43268518    -0.18400
C698        C  0.40965835  0.20750764  0.33049875    -0.18400
H699        H  0.42757297  0.02644485  0.35489057     0.14500
H700        H  0.40337004  0.02309625  0.41956433     0.14500
H701        H  0.40726027  0.27247140  0.37283187     0.14500
H702        H  0.36590955  0.27118010  0.42540003     0.14500
H703        H  0.39730391  0.12103021  0.24965164     0.12800
H704        H  0.40340585  0.18808510  0.25704072     0.12800
H705        H  0.31659033  0.09915977  0.48405580     0.12800
H706        H  0.30145671  0.16275074  0.48434251     0.12800
H707        H  0.36958424  0.11532222  0.37091458     0.26100
H708        H  0.36282988  0.17567679  0.37139149     0.26100
N709        N  0.12322536  0.92598546  0.34825882    -0.36700
N710        N  0.06444057  0.94488895  0.37360252    -0.57300
N711        N  0.03666163  0.87597652  0.35840622    -0.36700
N712        N  0.09756527  0.85497365  0.33770608    -0.57300
C713        C  0.12920498  0.95520368  0.36661731     0.26900
C714        C  0.14882732  0.90549995  0.35237507     0.26900
C715        C  0.01730284  0.88955690  0.38344334     0.26900
C716        C  0.03249808  0.84138364  0.35539483     0.26900
C717        C  0.07558358  0.97551980  0.36417322     0.35500
C718        C  0.03313902  0.94755286  0.37152745     0.35500
C719        C  0.12681528  0.85315444  0.32481119     0.35500
C720        C  0.08172630  0.82822105  0.32315414     0.35500
C721        C  0.15937122  0.95326058  0.38178874    -0.22000
C722        C  0.17186729  0.92185493  0.37249210    -0.22000
C723        C  0.99915166  0.86303432  0.39581257    -0.22000
C724        C  0.00812568  0.83292028  0.37753768    -0.22000
C725        C  0.05121650  0.99829088  0.35574033    -0.23000
C726        C  0.02391650  0.98064504  0.36096139    -0.23000
C727        C  0.13004610  0.82530907  0.30231905    -0.23000
C728        C  0.10175584  0.80956094  0.30106200    -0.23000
C729        C  0.10725334  0.98264059  0.37023012    -0.18400
C730        C  0.15202822  0.87280187  0.33746830    -0.18400
C731        C  0.05088860  0.81869850  0.33296875    -0.18400
C732        C  0.01600116  0.92577550  0.39266426    -0.18400
H733        H  0.17122523  0.97167087  0.39856352     0.14500
H734        H  0.19500605  0.91189098  0.38031499     0.14500
H735        H  0.98084409  0.86517063  0.41514690     0.14500
H736        H  0.99843970  0.80765157  0.38128055     0.14500
H737        H  0.05294114  0.02439178  0.34668819     0.12800
H738        H  0.00024158  0.99141869  0.35977497     0.12800
H739        H  0.15102299  0.81645306  0.28917361     0.12800
H740        H  0.09814908  0.78593171  0.28657356     0.12800
H741        H  0.10300558  0.92034791  0.33310906     0.26100
H742        H  0.05201332  0.89008141  0.34334951     0.26100
O743        O  0.68188470  0.98852057  0.20481082    -0.81000
O744        O  0.80251603  0.02356028  0.30539947    -0.65700
O745        O  0.73255759  0.99545054  0.24331278    -1.12300
C746        C  0.81223192  0.91119725  0.21524928     1.05900
O747        O  0.83881852  0.98811243  0.28040131    -0.78900
O748        O  0.80481065  0.02420641  0.22305557    -0.66500
Ni749      Ni  0.69354193  0.98015416  0.25503373     1.34900
C750        C  0.78829060  0.02366070  0.19379706     0.84700
O751        O  0.73344756  0.04573362  0.29287143    -0.79400
O752        O  0.68542387  0.02811259  0.27068566    -0.89700
C753        C  0.83178345  0.01227205  0.30237961     0.84200
O754        O  0.70355418  0.96548087  0.30390359    -0.67900
O755        O  0.82850665  0.92957002  0.23722699    -0.87200
C756        C  0.72742804  0.96409860  0.32545447     0.85100
C757        C  0.70292426  0.05074056  0.28690996     1.06600
H758        H  0.78641260  0.95031283  0.27495228     0.38400
O759        O  0.78437423  0.96948266  0.25839440    -1.09800
O760        O  0.77171186  0.99662429  0.18758784    -0.66500
Ni761      Ni  0.75563203  0.96064630  0.22084813     1.26300
O762        O  0.75272288  0.97927086  0.31805802    -0.66700
O763        O  0.78442591  0.92248564  0.20290909    -0.79000
C764        C  0.69462545  0.97135271  0.17922851     0.84400
O765        O  0.72171924  0.95507197  0.18413451    -0.66200
Ni766      Ni  0.81920824  0.97788372  0.23412061     1.27400
Ni767      Ni  0.76334907  0.00850281  0.27742560     1.26100
H768        H  0.72970630  0.01489155  0.22723479     0.39000
O769        O  0.68778211  0.17344612  0.97411431    -0.81000
O770        O  0.79386266  0.26869642  0.03533478    -0.65700
O771        O  0.72096976  0.22019980  0.00590097    -1.12300
C772        C  0.70899626  0.32461875  0.93488585     1.05900
O773        O  0.77406097  0.32273021  0.02054283    -0.78900
O774        O  0.72192643  0.28963252  0.04748547    -0.66500
Ni775      Ni  0.73264494  0.17908089  0.98815147     1.34900
C776        C  0.69265624  0.28380633  0.04404816     0.84700
O777        O  0.76849456  0.19777564  0.05135121    -0.79400
O778        O  0.72950744  0.16091496  0.03563979    -0.89700
C779        C  0.79576827  0.30236719  0.03441818     0.84200
O780        O  0.74513282  0.20072376  0.94504333    -0.67900
O781        O  0.72975515  0.33639221  0.95773854    -0.87200
C782        C  0.77391784  0.21064268  0.94689768     0.85100
C783        C  0.75337366  0.16836504  0.05606307     1.06600
H784        H  0.75838943  0.27806691  0.96613944     0.38400
O785        O  0.74486680  0.27478569  0.98599710    -1.09800
O786        O  0.68223214  0.27512122  0.01260620    -0.66500
Ni787      Ni  0.70726014  0.25436621  0.97298588     1.26300
O788        O  0.78443824  0.22136249  0.97785778    -0.66700
O789        O  0.69747503  0.29370555  0.93957728    -0.79000
C790        C  0.66579126  0.19507663  0.96331233     0.84400
O791        O  0.67040559  0.22790858  0.95987729    -0.66200
Ni792      Ni  0.73040417  0.31451062  0.00509639     1.27400
Ni793      Ni  0.75872020  0.23986258  0.01912517     1.26100
H794        H  0.70702239  0.21822019  0.02611745     0.39000
C795        C  0.31415249  0.27510627  0.80582608     0.80100
N796        N  0.28462674  0.28295828  0.81634366    -0.78200
C797        C  0.27538285  0.31648869  0.81890987     0.82600
N798        N  0.29521586  0.34166634  0.81033284    -0.78100
C799        C  0.32395574  0.33428066  0.79786235     0.82700
N800        N  0.33319415  0.30080089  0.79579930    -0.79800
C801        C  0.50435582  0.25630017  0.89166853     0.80100
N802        N  0.51252748  0.22260682  0.88998813    -0.78200
C803        C  0.50502697  0.19998390  0.91582058     0.82600
N804        N  0.48942077  0.21189459  0.94473772    -0.78100
C805        C  0.48235861  0.24626341  0.94733829     0.82700
N806        N  0.48939325  0.26794244  0.92056681    -0.79800
C807        C  0.51899962  0.55046672  0.70200486     0.80100
N808        N  0.51848337  0.57165614  0.73055961    -0.78200
C809        C  0.54251805  0.57193755  0.75518791     0.82600
N810        N  0.56739292  0.55015680  0.75146295    -0.78100
C811        C  0.56878924  0.52859099  0.72304309     0.82700
N812        N  0.54440418  0.52896060  0.69858368    -0.79800
C813        C  0.23985314  0.49969388  0.91545051     0.80100
N814        N  0.26189538  0.50006648  0.89011603    -0.78200
C815        C  0.28753202  0.47871314  0.89223722     0.82600
N816        N  0.29092703  0.45683421  0.92039333    -0.78100
C817        C  0.26884911  0.45555446  0.94573131     0.82700
N818        N  0.24335759  0.47704588  0.94317502    -0.79800
N819        N  0.41910137  0.59849680  0.87169231    -0.36700
N820        N  0.35652590  0.63049026  0.87939980    -0.57300
N821        N  0.38421571  0.69845230  0.89584417    -0.36700
N822        N  0.44278319  0.66525102  0.87991510    -0.57300
C823        C  0.40108850  0.57549658  0.85411061     0.26900
C824        C  0.44853552  0.59440525  0.85962598     0.26900
C825        C  0.35288540  0.70352899  0.89444721     0.26900
C826        C  0.39751149  0.72218478  0.87431875     0.26900
C827        C  0.34901656  0.59707099  0.87393693     0.35500
C828        C  0.33184196  0.64547958  0.89597694     0.35500
C829        C  0.46918592  0.64697686  0.88650811     0.35500
C830        C  0.44873564  0.69834140  0.88679994     0.35500
C831        C  0.41936013  0.55531934  0.83197659    -0.22000
C832        C  0.44938456  0.56742915  0.83522581    -0.22000
C833        C  0.34553193  0.73168971  0.87266398    -0.22000
C834        C  0.37377243  0.74327780  0.85951140    -0.22000
C835        C  0.31907480  0.59130923  0.88590055    -0.23000
C836        C  0.30815202  0.62188632  0.89949161    -0.23000
C837        C  0.49252245  0.66852023  0.89885672    -0.23000
C838        C  0.47968652  0.70153859  0.89854415    -0.23000
C839        C  0.36873836  0.57151607  0.85843653    -0.18400
C840        C  0.47400853  0.61591424  0.86856256    -0.18400
C841        C  0.43054738  0.72320201  0.86830464    -0.18400
C842        C  0.33126244  0.68000743  0.90833006    -0.18400
H843        H  0.41163746  0.53462940  0.81462253     0.14500
H844        H  0.46930932  0.55791837  0.82060995     0.14500
H845        H  0.32223056  0.74155081  0.86542817     0.14500
H846        H  0.37633401  0.76459996  0.84123800     0.14500
H847        H  0.30634936  0.56746462  0.88558283     0.12800
H848        H  0.28499574  0.62583041  0.90986738     0.12800
H849        H  0.51668728  0.66120793  0.90410832     0.12800
H850        H  0.49227955  0.72523296  0.90243510     0.12800
H851        H  0.41165986  0.61581004  0.89109040     0.26100
H852        H  0.39534045  0.67865010  0.91065348     0.26100
N853        N  0.62550922  0.35925130  0.78371532    -0.36700
N854        N  0.68070038  0.39801905  0.77758514    -0.57300
N855        N  0.70726152  0.38339079  0.84960334    -0.36700
N856        N  0.65041395  0.34371905  0.85781043    -0.57300
C857        C  0.61680060  0.38092671  0.75665537     0.26900
C858        C  0.59893823  0.35066879  0.79954864     0.26900
C859        C  0.71505876  0.41718539  0.84349392     0.26900
C860        C  0.70824926  0.37636976  0.88555211     0.26900
C861        C  0.66986385  0.39738144  0.74353451     0.35500
C862        C  0.70807143  0.41421106  0.77804580     0.35500
C863        C  0.62132576  0.32986376  0.85849354     0.35500
C864        C  0.66453557  0.33609502  0.89009378     0.35500
C865        C  0.58432622  0.38444948  0.75436002    -0.22000
C866        C  0.57299943  0.36468918  0.78104730    -0.22000
C867        C  0.72064608  0.43206048  0.87671768    -0.22000
C868        C  0.71723128  0.40644105  0.90292431    -0.22000
C869        C  0.69144827  0.41175049  0.72141935    -0.23000
C870        C  0.71578774  0.42245734  0.74329432    -0.23000
C871        C  0.61679402  0.31478331  0.89131767    -0.23000
C872        C  0.64340368  0.31937892  0.91138947    -0.23000
C873        C  0.63757541  0.40051815  0.73688058    -0.18400
C874        C  0.59713610  0.33254559  0.83163091    -0.18400
C875        C  0.69534695  0.34581174  0.90206994    -0.18400
C876        C  0.71681131  0.43342780  0.80822186    -0.18400
H877        H  0.57008668  0.40056049  0.73642918     0.14500
H878        H  0.54851521  0.36294216  0.78767304     0.14500
H879        H  0.72513649  0.45891859  0.88172610     0.14500
H880        H  0.71838069  0.41049228  0.93153653     0.14500
H881        H  0.68766006  0.41860908  0.69359045     0.12800
H882        H  0.73451143  0.43895714  0.73524283     0.12800
H883        H  0.59577163  0.30305081  0.90075075     0.12800
H884        H  0.64555164  0.31304254  0.93950195     0.12800
H885        H  0.64811711  0.35157127  0.79210278     0.26100
H886        H  0.70117065  0.36533250  0.83009279     0.26100
N887        N  0.36345521  0.46614731  0.64813052    -0.36700
N888        N  0.39543425  0.46812153  0.58580581    -0.57300
N889        N  0.36968533  0.40378314  0.55129843    -0.36700
N890        N  0.33803816  0.39816344  0.61502207    -0.57300
C891        C  0.38642125  0.48852656  0.65727871     0.26900
C892        C  0.35957857  0.44620178  0.67683545     0.26900
C893        C  0.39976588  0.40465729  0.53988931     0.26900
C894        C  0.35878647  0.37110088  0.54821415     0.26900
C895        C  0.39874897  0.50098252  0.59650939     0.35500
C896        C  0.40511419  0.46613448  0.55229295     0.35500
C897        C  0.32602633  0.40058488  0.64804397     0.35500
C898        C  0.32104515  0.37412373  0.59658596     0.35500
C899        C  0.39512688  0.48471141  0.69298741    -0.22000
C900        C  0.37824931  0.45778778  0.70536808    -0.22000
C901        C  0.40803322  0.37178523  0.52823806    -0.22000
C902        C  0.38207535  0.35084591  0.53279893    -0.22000
C903        C  0.40987187  0.52052855  0.56929392    -0.23000
C904        C  0.41349761  0.49862568  0.54072581    -0.23000
C905        C  0.30154752  0.37802385  0.65092443    -0.23000
C906        C  0.29818386  0.36152268  0.61870691    -0.23000
C907        C  0.40237628  0.50872700  0.63280637    -0.18400
C908        C  0.34038975  0.41719213  0.67787298    -0.18400
C909        C  0.32967807  0.35973346  0.56276166    -0.18400
C910        C  0.41862725  0.43512018  0.54061376    -0.18400
H911        H  0.41316990  0.49826764  0.70796081     0.14500
H912        H  0.38060388  0.44702626  0.73202388     0.14500
H913        H  0.43035541  0.36343414  0.51786315     0.14500
H914        H  0.38158885  0.32340681  0.52768512     0.14500
H915        H  0.41731320  0.54670190  0.57173572     0.12800
H916        H  0.42504858  0.50450738  0.51618155     0.12800
H917        H  0.28844403  0.37273451  0.67458701     0.12800
H918        H  0.28219540  0.34066110  0.61429544     0.12800
H919        H  0.35188496  0.46320436  0.62338967     0.26100
H920        H  0.35694799  0.42478646  0.56116953     0.26100
N921        N  0.35962576  0.33801325  0.07102378    -0.36700
N922        N  0.41403667  0.33512371  0.11697480    -0.57300
N923        N  0.38000801  0.36977414  0.17541118    -0.36700
N924        N  0.32639663  0.37814167  0.12720195    -0.57300
C925        C  0.38051390  0.32548898  0.04744662     0.26900
C926        C  0.33403126  0.34875730  0.05181613     0.26900
C927        C  0.40105555  0.34839473  0.19396536     0.26900
C928        C  0.35880696  0.38445825  0.19822911     0.26900
C929        C  0.42859127  0.32625654  0.08687857     0.35500
C930        C  0.43585016  0.33545510  0.14360678     0.35500
C931        C  0.30386732  0.37602577  0.10101288     0.35500
C932        C  0.31247435  0.39130624  0.15644847     0.35500
C933        C  0.36702879  0.32614177  0.01325522    -0.22000
C934        C  0.33769183  0.34084765  0.01600170    -0.22000
C935        C  0.39321641  0.35006301  0.22966503    -0.22000
C936        C  0.36763702  0.37334913  0.23246958    -0.22000
C937        C  0.46069035  0.32277337  0.09417017    -0.23000
C938        C  0.46528022  0.32947274  0.12977941    -0.23000
C939        C  0.27521111  0.38650523  0.11375688    -0.23000
C940        C  0.28027363  0.39482192  0.14903952    -0.23000
C941        C  0.41239879  0.31647584  0.05493328    -0.18400
C942        C  0.30945683  0.36993913  0.06455027    -0.18400
C943        C  0.32916743  0.40262727  0.18811037    -0.18400
C944        C  0.42773442  0.32910548  0.17913852    -0.18400
H945        H  0.37794048  0.31890827  0.98854303     0.14500
H946        H  0.32155208  0.34692279  0.99386463     0.14500
H947        H  0.40500009  0.33637495  0.25161495     0.14500
H948        H  0.35537435  0.37916939  0.25669885     0.14500
H949        H  0.47910395  0.31393200  0.07703601     0.12800
H950        H  0.48773738  0.32780289  0.14398626     0.12800
H951        H  0.25286826  0.38775314  0.09921394     0.12800
H952        H  0.26169452  0.40211782  0.16664260     0.12800
H953        H  0.36279368  0.34110793  0.09829106     0.26100
H954        H  0.37998969  0.37435368  0.14808469     0.26100
N955        N  0.41932263  0.11142528  0.80488720    -0.36700
N956        N  0.35349116  0.08172564  0.80076449    -0.57300
N957        N  0.36850007  0.02117181  0.83941252    -0.36700
N958        N  0.43090798  0.05556982  0.84996570    -0.57300
C959        C  0.40080075  0.13990730  0.80312137     0.26900
C960        C  0.44640327  0.12036999  0.82204688     0.26900
C961        C  0.33692315  0.01754710  0.83396600     0.26900
C962        C  0.37742186  0.01230495  0.87372096     0.26900
C963        C  0.35218764  0.11148268  0.78179308     0.35500
C964        C  0.32942016  0.06254034  0.78781537     0.35500
C965        C  0.45997841  0.06227281  0.83939076     0.35500
C966        C  0.43207051  0.02380604  0.86379340     0.35500
C967        C  0.41695351  0.16792771  0.81688283    -0.22000
C968        C  0.44594149  0.15560282  0.82867930    -0.22000
C969        C  0.32524571  0.00436013  0.86533369    -0.22000
C970        C  0.35054511  0.00180576  0.89055124    -0.22000
C971        C  0.32729068  0.11180414  0.75750095    -0.23000
C972        C  0.31337936  0.08071492  0.76081216    -0.23000
C973        C  0.47984586  0.03444991  0.84630407    -0.23000
C974        C  0.46221935  0.00986686  0.86234355    -0.23000
C975        C  0.36949242  0.14081628  0.79013591    -0.18400
C976        C  0.46918930  0.09631169  0.83561935    -0.18400
C977        C  0.40962356  0.01428770  0.88779421    -0.18400
C978        C  0.31946890  0.03093291  0.80282570    -0.18400
H979        H  0.40839173  0.19427781  0.81942898     0.14500
H980        H  0.46368214  0.17059108  0.84246140     0.14500
H981        H  0.30085227  0.99949904  0.87043721     0.14500
H982        H  0.34913290  0.99336978  0.91800016     0.14500
H983        H  0.31987953  0.13248994  0.73947011     0.12800
H984        H  0.29348225  0.07300235  0.74511288     0.12800
H985        H  0.50455404  0.03317165  0.84203224     0.12800
H986        H  0.47091796  0.98589667  0.87420830     0.12800
H987        H  0.41309615  0.08685949  0.79616471     0.26100
H988        H  0.38344114  0.02995730  0.81997845     0.26100
N989        N  0.13333825  0.42996529  0.85925708    -0.36700
N990        N  0.07751188  0.46230685  0.87534672    -0.57300
N991        N  0.03932346  0.40322359  0.84993315    -0.36700
N992        N  0.09792470  0.37124753  0.83312744    -0.57300
C993        C  0.14290955  0.45509465  0.88156727     0.26900
C994        C  0.15492552  0.40422411  0.86176487     0.26900
C995        C  0.02449137  0.41508774  0.87935069     0.26900
C996        C  0.03176527  0.36974223  0.84358801     0.26900
C997        C  0.09504880  0.49046016  0.87795918     0.35500
C998        C  0.04748604  0.47228060  0.87685312     0.35500
C999        C  0.12710540  0.36564251  0.82110963     0.35500
C1000       C  0.07831895  0.35569893  0.80957467     0.35500
C1001       C  0.17119930  0.44511229  0.89825773    -0.22000
C1002       C  0.17904770  0.41304159  0.88534116    -0.22000
C1003       C  0.00661534  0.38837923  0.89211562    -0.22000
C1004       C  0.01063347  0.36004877  0.86908613    -0.22000
C1005       C  0.07621996  0.51975076  0.88045045    -0.23000
C1006       C  0.04574836  0.50810857  0.88004431    -0.23000
C1007       C  0.12637064  0.34665709  0.78995763    -0.23000
C1008       C  0.09539295  0.34115699  0.78216347    -0.23000
C1009       C  0.12736510  0.48749886  0.88453447    -0.18400
C1010       C  0.15424247  0.37484721  0.84029081    -0.18400
C1011       C  0.04673480  0.34855745  0.81706847    -0.18400
C1012       C  0.02741816  0.44971097  0.89327454    -0.18400
H1013       H  0.18455479  0.45866755  0.91831909     0.14500
H1014       H  0.20008745  0.39809479  0.89237429     0.14500
H1015       H  0.99209956  0.38922935  0.91533972     0.14500
H1016       H  0.00062653  0.33480703  0.87207037     0.14500
H1017       H  0.08366660  0.54584829  0.88560072     0.12800
H1018       H  0.02512125  0.52344623  0.88618713     0.12800
H1019       H  0.14591980  0.33734152  0.77463323     0.12800
H1020       H  0.08669510  0.32608395  0.76000520     0.12800
H1021       H  0.11430648  0.43124377  0.84109342     0.26100
H1022       H  0.05458771  0.41738604  0.83471066     0.26100
C1023       C  0.76122847  0.78055375  0.20762216     0.80100
N1024       N  0.77194339  0.75021448  0.19406306    -0.78200
C1025       C  0.75824447  0.71995182  0.20211145     0.82600
N1026       N  0.73309347  0.72037942  0.22322863    -0.78100
C1027       C  0.72190826  0.75037237  0.23680864     0.82700
N1028       N  0.73624851  0.78018117  0.22944314    -0.79800
N1029       N  0.59323277  0.67244968  0.33476426    -0.36700
N1030       N  0.57567486  0.61027421  0.37026557    -0.57300
N1031       N  0.62562572  0.61885709  0.42492280    -0.36700
N1032       N  0.64110782  0.68564022  0.38802442    -0.57300
C1033       C  0.56617668  0.66562813  0.31722046     0.26900
C1034       C  0.60034882  0.70526703  0.32739729     0.26900
C1035       C  0.60446809  0.59887597  0.44154577     0.26900
C1036       C  0.64187799  0.63794684  0.44968957     0.26900
C1037       C  0.56376216  0.60509554  0.33688967     0.35500
C1038       C  0.57760513  0.57907053  0.38645268     0.35500
C1039       C  0.65117867  0.70154140  0.35855463     0.35500
C1040       C  0.66704161  0.67295135  0.40533231     0.35500
C1041       C  0.55501982  0.69484500  0.29914342    -0.22000
C1042       C  0.57673732  0.72023356  0.30581877    -0.22000
C1043       C  0.60785305  0.60489123  0.47810972    -0.22000
C1044       C  0.63134569  0.62942738  0.48319562    -0.22000
C1045       C  0.55798118  0.57030435  0.33203625    -0.23000
C1046       C  0.56658530  0.55385622  0.36350316    -0.23000
C1047       C  0.68364901  0.69909424  0.35719862    -0.23000
C1048       C  0.69372764  0.68109149  0.38703338    -0.23000
C1049       C  0.55584713  0.63198300  0.31214189    -0.18400
C1050       C  0.63084552  0.71765850  0.33290539    -0.18400
C1051       C  0.66632561  0.66145491  0.44077931    -0.18400
C1052       C  0.58336923  0.57519786  0.42343822    -0.18400
H1053       H  0.53466463  0.69688687  0.28117095     0.14500
H1054       H  0.57665328  0.74561167  0.29370936     0.14500
H1055       H  0.59491190  0.59285962  0.49902442     0.14500
H1056       H  0.63965638  0.63967129  0.50856658     0.14500
H1057       H  0.54699051  0.55806521  0.30917005     0.12800
H1058       H  0.56390052  0.52670874  0.36908959     0.12800
H1059       H  0.69857654  0.70853174  0.33664377     0.12800
H1060       H  0.71794077  0.67461494  0.39422907     0.12800
H1061       H  0.60840992  0.65401905  0.34651025     0.26100
H1062       H  0.62945611  0.61898616  0.39752922     0.26100
C1063       C  0.73491592  0.48006628  0.01149947     0.80100
N1064       N  0.74036624  0.50189504  0.98416009    -0.78200
C1065       C  0.77003869  0.50520674  0.97232963     0.82600
N1066       N  0.79402171  0.48705772  0.98821249    -0.78100
C1067       C  0.78898835  0.46505349  0.01566766     0.82700
N1068       N  0.75930540  0.46219230  0.02741236    -0.79800
C1069       C  0.52889928  0.70729380  0.07485842     0.80100
N1070       N  0.55287994  0.68523252  0.06720916    -0.78200
C1071       C  0.54762360  0.65533036  0.04982369     0.82600
N1072       N  0.51786868  0.64794392  0.04012725    -0.78100
C1073       C  0.49350296  0.66984443  0.04576558     0.82700
N1074       N  0.49892864  0.70021019  0.06316645    -0.79800
C1075       C  0.49992123  0.53386305  0.24335525     0.80100
N1076       N  0.47244761  0.52517536  0.22741251    -0.78200
C1077       C  0.46338288  0.49179605  0.22688351     0.82600
N1078       N  0.48235657  0.46717261  0.24223127    -0.78100
C1079       C  0.51028553  0.47556618  0.25823308     0.82700
N1080       N  0.51882407  0.50899793  0.25831424    -0.79800
N1081       N  0.38477201  0.53350659  0.05391959    -0.36700
N1082       N  0.34025354  0.59106744  0.03851067    -0.57300
N1083       N  0.29067700  0.57325121  0.08761865    -0.36700
N1084       N  0.33471313  0.51818633  0.10351374    -0.57300
C1085       C  0.40330155  0.55896859  0.04310874     0.26900
C1086       C  0.40016025  0.51741197  0.08127162     0.26900
C1087       C  0.28475295  0.60717006  0.07936747     0.26900
C1088       C  0.28521901  0.56662292  0.12287708     0.26900
C1089       C  0.36105245  0.58962481  0.01204059     0.35500
C1090       C  0.31361793  0.60478385  0.02377512     0.35500
C1091       C  0.35362375  0.49002961  0.10228572     0.35500
C1092       C  0.30864664  0.50881957  0.12000921     0.35500
C1093       C  0.43193190  0.55740246  0.06182607    -0.22000
C1094       C  0.42990626  0.53092571  0.08620238    -0.22000
C1095       C  0.27365604  0.62276763  0.11015681    -0.22000
C1096       C  0.27416354  0.59740558  0.13747460    -0.22000
C1097       C  0.34808169  0.60234394  0.98052497    -0.23000
C1098       C  0.31752208  0.61077076  0.98772747    -0.23000
C1099       C  0.33904756  0.46218608  0.11677599    -0.23000
C1100       C  0.31005520  0.47388645  0.12694803    -0.23000
C1101       C  0.39304798  0.58497870  0.01913847    -0.18400
C1102       C  0.38606128  0.49381671  0.10390956    -0.18400
C1103       C  0.29135533  0.53297410  0.13984541    -0.18400
C1104       C  0.29117960  0.62203617  0.04448615    -0.18400
H1105       H  0.45138591  0.57474410  0.05974243     0.14500
H1106       H  0.44747159  0.52387172  0.10657902     0.14500
H1107       H  0.26695657  0.64968224  0.11311208     0.14500
H1108       H  0.26767758  0.60142669  0.16490684     0.14500
H1109       H  0.35992327  0.60647448  0.95578342     0.12800
H1110       H  0.30056406  0.62291196  0.96977962     0.12800
H1111       H  0.35010722  0.43757607  0.12316818     0.12800
H1112       H  0.29327884  0.45989100  0.14167430     0.12800
H1113       H  0.36187762  0.52882220  0.04463977     0.26100
H1114       H  0.29836282  0.55509592  0.06910528     0.26100
N1115       N  0.62277391  0.40158038  0.13859207    -0.36700
N1116       N  0.64974663  0.35777095  0.08283715    -0.57300
N1117       N  0.63437802  0.29488718  0.12122252    -0.36700
N1118       N  0.60402560  0.33957613  0.17238024    -0.57300
C1119       C  0.62208403  0.42375213  0.11089011     0.26900
C1120       C  0.60213688  0.41325769  0.16242116     0.26900
C1121       C  0.64702821  0.28216486  0.09087027     0.26900
C1122       C  0.61213152  0.27322006  0.13367215     0.26900
C1123       C  0.66028281  0.39008575  0.07770685     0.35500
C1124       C  0.67386166  0.33609708  0.07478403     0.35500
C1125       C  0.60558512  0.36183447  0.19977492     0.35500
C1126       C  0.60354979  0.30803483  0.18690665     0.35500
C1127       C  0.60099687  0.45061233  0.11721848    -0.22000
C1128       C  0.58814287  0.44385699  0.15006054    -0.22000
C1129       C  0.63333838  0.25045548  0.08410393    -0.22000
C1130       C  0.61105346  0.24512069  0.11062936    -0.22000
C1131       C  0.69084696  0.38917502  0.06662003    -0.23000
C1132       C  0.69963258  0.35533870  0.06511869    -0.23000
C1133       C  0.60646583  0.34455664  0.23215871    -0.23000
C1134       C  0.60502681  0.31018907  0.22400519    -0.23000
C1135       C  0.64242943  0.42067853  0.08225405    -0.18400
C1136       C  0.59709456  0.39643721  0.19503566    -0.18400
C1137       C  0.59543216  0.27908734  0.16660494    -0.18400
C1138       C  0.67100595  0.29968818  0.07136503    -0.18400
H1139       H  0.59571202  0.47269958  0.10019307     0.14500
H1140       H  0.57073562  0.45960377  0.16330232     0.14500
H1141       H  0.63849297  0.23318920  0.06224237     0.14500
H1142       H  0.59647547  0.22276315  0.11310528     0.14500
H1143       H  0.70577182  0.41064968  0.06117292     0.12800
H1144       H  0.72292477  0.34712320  0.05810768     0.12800
H1145       H  0.60568622  0.35572187  0.25862876     0.12800
H1146       H  0.60415782  0.28953218  0.24331818     0.12800
H1147       H  0.63788433  0.38026800  0.14210081     0.26100
H1148       H  0.64198300  0.31740855  0.13347312     0.26100
N1149       N  0.67310218  0.62722419  0.90851822    -0.36700
N1150       N  0.69691466  0.61469321  0.84296457    -0.57300
N1151       N  0.63879197  0.63899760  0.80404289    -0.36700
N1152       N  0.61146002  0.64628055  0.87002466    -0.57300
C1153       C  0.70002075  0.60924417  0.91642059     0.26900
C1154       C  0.65147151  0.61622371  0.93098964     0.26900
C1155       C  0.65016756  0.61487927  0.78088129     0.26900
C1156       C  0.60959588  0.65022499  0.79315793     0.26900
C1157       C  0.72435234  0.61972454  0.86048612     0.35500
C1158       C  0.70257398  0.61475588  0.80822186     0.35500
C1159       C  0.60467240  0.64797875  0.90498906     0.35500
C1160       C  0.59035379  0.66724737  0.85207394     0.35500
C1161       C  0.69540711  0.58700035  0.94478293    -0.22000
C1162       C  0.66469407  0.59158282  0.95409917    -0.22000
C1163       C  0.62738430  0.61071601  0.75395697    -0.22000
C1164       C  0.60233691  0.63376992  0.76106727    -0.22000
C1165       C  0.74825843  0.62322032  0.83668309    -0.23000
C1166       C  0.73437414  0.61972795  0.80311873    -0.23000
C1167       C  0.57857060  0.66899013  0.90935909    -0.23000
C1168       C  0.56984164  0.68165157  0.87612568    -0.23000
C1169       C  0.72769781  0.61137334  0.89664604    -0.18400
C1170       C  0.62084243  0.62977845  0.93296662    -0.18400
C1171       C  0.58911070  0.67197384  0.81421731    -0.18400
C1172       C  0.68144326  0.59938402  0.78420935    -0.18400
H1173       H  0.71178672  0.56838359  0.95672839     0.14500
H1174       H  0.65320475  0.57796614  0.97514539     0.14500
H1175       H  0.62890201  0.59376788  0.73109718     0.14500
H1176       H  0.58064868  0.63660214  0.74542358     0.14500
H1177       H  0.77310362  0.62497884  0.84310576     0.12800
H1178       H  0.74636278  0.61821228  0.77808510     0.12800
H1179       H  0.56722105  0.67505448  0.93413068     0.12800
H1180       H  0.55025483  0.69916459  0.87106536     0.12800
H1181       H  0.66980405  0.64665371  0.88941640     0.26100
H1182       H  0.65056087  0.64796769  0.82675573     0.26100
N1183       N  0.85401015  0.55177612  0.15311857    -0.36700
N1184       N  0.88870542  0.61827027  0.15802804    -0.57300
N1185       N  0.94699799  0.58669128  0.13904395    -0.36700
N1186       N  0.91267480  0.52215947  0.13336184    -0.57300
C1187       C  0.83032227  0.57515103  0.14876569     0.26900
C1188       C  0.84431623  0.52244643  0.13709299     0.26900
C1189       C  0.95471155  0.62069799  0.13982220     0.26900
C1190       C  0.96280486  0.56997193  0.11266287     0.26900
C1191       C  0.85966092  0.62646077  0.16952144     0.35500
C1192       C  0.90775114  0.64366927  0.17012213     0.35500
C1193       C  0.89598302  0.49341356  0.13815757     0.35500
C1194       C  0.94213188  0.51219720  0.12586817     0.35500
C1195       C  0.80454076  0.56012320  0.13219913    -0.22000
C1196       C  0.81342669  0.52677856  0.12462432    -0.22000
C1197       C  0.97716298  0.62561244  0.11425672    -0.22000
C1198       C  0.98158046  0.59400224  0.09655343    -0.22000
C1199       C  0.86017770  0.65690778  0.18872316    -0.23000
C1200       C  0.89021035  0.66812603  0.18859643    -0.23000
C1201       C  0.91517371  0.46454904  0.13519373    -0.23000
C1202       C  0.94432910  0.47638435  0.12775868    -0.23000
C1203       C  0.83167780  0.60988327  0.15885288    -0.18400
C1204       C  0.86364254  0.49330640  0.13015954    -0.18400
C1205       C  0.96111659  0.53335524  0.10488909    -0.18400
C1206       C  0.94014051  0.64650618  0.16235754    -0.18400
H1207       H  0.78212638  0.57230706  0.12500090     0.14500
H1208       H  0.79912529  0.50832890  0.11028935     0.14500
H1209       H  0.98811144  0.64967816  0.10779475     0.14500
H1210       H  0.99732243  0.58915383  0.07487713     0.14500
H1211       H  0.84058788  0.67045051  0.20052230     0.12800
H1212       H  0.89726685  0.69269448  0.19941822     0.12800
H1213       H  0.90796503  0.43796710  0.13364829     0.12800
H1214       H  0.96365789  0.46002148  0.12044380     0.12800
H1215       H  0.87578622  0.55624801  0.16546301     0.26100
H1216       H  0.93175474  0.57545697  0.15662224     0.26100
N1217       N  0.65055315  0.85149400  0.10505713    -0.36700
N1218       N  0.68278506  0.91419899  0.11369010    -0.57300
N1219       N  0.62784046  0.95933789  0.10667594    -0.36700
N1220       N  0.59243590  0.89232472  0.10939462    -0.57300
C1221       C  0.68030182  0.83926366  0.11070865     0.26900
C1222       C  0.63067922  0.82554259  0.11115856     0.26900
C1223       C  0.64412311  0.97290503  0.13546093     0.26900
C1224       C  0.59686899  0.96758809  0.10910244     0.26900
C1225       C  0.70673656  0.89464644  0.10260191     0.35500
C1226       C  0.69303027  0.94619557  0.11864335     0.35500
C1227       C  0.58009568  0.86039914  0.10971827     0.35500
C1228       C  0.56815413  0.91460061  0.10194706     0.35500
C1229       C  0.67946701  0.80452331  0.11936038    -0.22000
C1230       C  0.64820147  0.79564355  0.11871365    -0.22000
C1231       C  0.62276933  0.99056919  0.15630958    -0.22000
C1232       C  0.59313631  0.98679424  0.14001157    -0.22000
C1233       C  0.73282214  0.91496157  0.09880021    -0.23000
C1234       C  0.72432950  0.94775809  0.10979979    -0.23000
C1235       C  0.54776433  0.86305948  0.10494102    -0.23000
C1236       C  0.54025075  0.89710729  0.09986660    -0.23000
C1237       C  0.70788364  0.85935084  0.11075229    -0.18400
C1238       C  0.59728312  0.82843412  0.11029275    -0.18400
C1239       C  0.57203688  0.94921207  0.09157543    -0.18400
C1240       C  0.67740882  0.96732979  0.14281702    -0.18400
H1241       H  0.69931030  0.78743655  0.12566948     0.14500
H1242       H  0.63953900  0.77024613  0.12429764     0.14500
H1243       H  0.62752510  0.00374973  0.18125784     0.14500
H1244       H  0.57103186  0.99511739  0.15104040     0.14500
H1245       H  0.75604420  0.90616337  0.09177220     0.12800
H1246       H  0.73991854  0.96918487  0.11403098     0.12800
H1247       H  0.53115524  0.84240945  0.10400407     0.12800
H1248       H  0.51674350  0.90736042  0.09513930     0.12800
H1249       H  0.64409362  0.87642541  0.09783513     0.26100
H1250       H  0.63669640  0.94341252  0.08673013     0.26100
O1251       O  0.67946609  0.50223492  0.68259944    -0.81000
O1252       O  0.78587878  0.53709504  0.80339510    -0.65700
O1253       O  0.72828468  0.51717322  0.72477485    -1.12300
C1254       C  0.82097209  0.45646951  0.69199547     1.05900
O1255       O  0.82996648  0.51202415  0.78214551    -0.78900
O1256       O  0.81522314  0.53854082  0.68401215    -0.66500
Ni1257     Ni  0.68896036  0.49847622  0.73434202     1.34900
C1258       C  0.79266584  0.54139205  0.66112118     0.84700
O1259       O  0.72004053  0.55298279  0.78583191    -0.79400
O1260       O  0.67865889  0.54696064  0.74641900    -0.89700
C1261       C  0.81592260  0.52997120  0.80593650     0.84200
O1262       O  0.69624852  0.48859185  0.78568201    -0.67900
O1263       O  0.83497058  0.47742355  0.71408879    -0.87200
C1264       C  0.72013318  0.47172724  0.79839974     0.85100
C1265       C  0.69373480  0.56459489  0.77062380     1.06600
H1266       H  0.78851177  0.47946142  0.75148238     0.38400
O1267       O  0.78385831  0.50086224  0.73897295    -1.09800
O1268       O  0.76637715  0.52749572  0.66693706    -0.66500
Ni1269     Ni  0.75714319  0.48933840  0.70025409     1.26300
O1270       O  0.74681093  0.48340891  0.79142191    -0.66700
O1271       O  0.79148549  0.46035157  0.68132494    -0.79000
C1272       C  0.69506330  0.48526125  0.65889023     0.84400
O1273       O  0.72476989  0.47686947  0.66419644    -0.66200
Ni1274     Ni  0.82153550  0.52262327  0.73239311     1.27400
Ni1275     Ni  0.75456252  0.52635025  0.76507706     1.26100
H1276       H  0.72522324  0.53838076  0.71139109     0.39000
O1277       O  0.99761829  0.92314668  0.45417942    -0.81000
O1278       O  0.97621732  0.03262071  0.57775494    -0.65700
O1279       O  0.99050906  0.97402866  0.49854914    -1.12300
C1280       C  0.04692723  0.07596378  0.46825923     1.05900
O1281       O  0.99607893  0.08353212  0.56034186    -0.78900
O1282       O  0.97276663  0.07444841  0.45928525    -0.66500
Ni1283     Ni  0.00688356  0.92897579  0.50526972     1.34900
C1284       C  0.96556609  0.05011817  0.43775558     0.84700
O1285       O  0.95704471  0.96441663  0.55738386    -0.79400
O1286       O  0.96397477  0.91817859  0.52092595    -0.89700
C1287       C  0.98185022  0.06500532  0.58332813     0.84200
O1288       O  0.02165218  0.93124852  0.55555676    -0.67900
O1289       O  0.02966671  0.09060739  0.49236929    -0.87200
C1290       C  0.03097618  0.95579570  0.57591964     0.85100
C1291       C  0.94782565  0.93483865  0.54455256     1.06600
H1292       H  0.02750507  0.03587829  0.52742100     0.38400
O1293       O  0.00757152  0.03336216  0.51473621    -1.09800
O1294       O  0.97668178  0.01992977  0.44416678    -0.66500
Ni1295     Ni  0.01445112  0.00631099  0.47397934     1.26300
O1296       O  0.02180277  0.98648619  0.56821948    -0.66700
O1297       O  0.04073082  0.04489935  0.45527600    -0.79000
C1298       C  0.01014839  0.94121850  0.42952594     0.84400
O1299       O  0.02047315  0.97247536  0.43540324    -0.66200
Ni1300     Ni  0.98790635  0.07704989  0.50897211     1.27400
Ni1301     Ni  0.98385445  0.00080069  0.53895308     1.26100
H1302       H  0.97036125  0.97243053  0.48605691     0.39000
C1303       C  0.53705819  0.98691003  0.73818002     0.80100
N1304       N  0.52644418  0.95392945  0.73466097    -0.78200
C1305       C  0.49665697  0.94857308  0.72074900     0.82600
N1306       N  0.47870427  0.97621186  0.71025203    -0.78100
C1307       C  0.48931069  0.00855767  0.71309985     0.82700
N1308       N  0.51822010  0.01363551  0.72715465    -0.79800
C1309       C  0.71995940  0.05998235  0.55103351     0.80100
N1310       N  0.74712035  0.05840061  0.57066194    -0.78200
C1311       C  0.74842089  0.04182979  0.60261115     0.82600
N1312       N  0.72214494  0.02724159  0.61511231    -0.78100
C1313       C  0.69452325  0.02922089  0.59581361     0.82700
N1314       N  0.69392724  0.04536878  0.56368560    -0.79800
C1315       C  0.47533426  0.26013496  0.55771922     0.80100
N1316       N  0.49460170  0.25901268  0.58728727    -0.78200
C1317       C  0.52211384  0.24079119  0.58766882     0.82600
N1318       N  0.53028322  0.22370199  0.55788704    -0.78100
C1319       C  0.51142246  0.22414706  0.52825767     0.82700
N1320       N  0.48378174  0.24225919  0.52804668    -0.79800
N1321       N  0.63916128  0.14310995  0.41210288    -0.36700
N1322       N  0.68340529  0.11630880  0.35839942    -0.57300
N1323       N  0.63039483  0.10700624  0.30952992    -0.36700
N1324       N  0.58851117  0.14100491  0.36149510    -0.57300
C1325       C  0.66665922  0.14796122  0.42970416     0.26900
C1326       C  0.61631361  0.15810197  0.43144792     0.26900
C1327       C  0.65458906  0.09466257  0.28945210     0.26900
C1328       C  0.60676015  0.12088825  0.28772917     0.26900
C1329       C  0.70371129  0.12187699  0.38623815     0.35500
C1330       C  0.69980813  0.09912681  0.33323244     0.35500
C1331       C  0.57146209  0.14446047  0.39084329     0.35500
C1332       C  0.56846971  0.13304193  0.33470979     0.35500
C1333       C  0.66135429  0.16589538  0.46110009    -0.22000
C1334       C  0.62955761  0.17279369  0.46192644    -0.22000
C1335       C  0.64544017  0.09926983  0.25381093    -0.22000
C1336       C  0.61607412  0.11646833  0.25275175    -0.22000
C1337       C  0.73343199  0.11021912  0.37814893    -0.23000
C1338       C  0.73128189  0.09659010  0.34451721    -0.23000
C1339       C  0.54001577  0.13877790  0.38285366    -0.23000
C1340       C  0.53809283  0.13144409  0.34699424    -0.23000
C1341       C  0.69543637  0.13204273  0.42100330    -0.18400
C1342       C  0.58374877  0.15662599  0.42342406    -0.18400
C1343       C  0.57675612  0.13587576  0.29913500    -0.18400
C1344       C  0.68570841  0.08272869  0.30263655    -0.18400
H1345       H  0.67846883  0.17273912  0.48166363     0.14500
H1346       H  0.61748343  0.18589727  0.48320664     0.14500
H1347       H  0.65925420  0.09270573  0.23090287     0.14500
H1348       H  0.60277293  0.12403381  0.22881856     0.14500
H1349       H  0.75442796  0.11088820  0.39517408     0.12800
H1350       H  0.75137358  0.08655801  0.33082432     0.12800
H1351       H  0.52054071  0.14064282  0.40071196     0.12800
H1352       H  0.51678033  0.12648817  0.33150176     0.12800
H1353       H  0.63626965  0.12778773  0.38978514     0.26100
H1354       H  0.63010338  0.10554313  0.33711137     0.26100
N1355       N  0.38288999  0.16722146  0.64809854    -0.36700
N1356       N  0.32860493  0.19981289  0.62157180    -0.57300
N1357       N  0.28958980  0.13771886  0.62914445    -0.36700
N1358       N  0.34481177  0.10219988  0.65286280    -0.57300
C1359       C  0.39502439  0.19576135  0.63334819     0.26900
C1360       C  0.40528253  0.14227087  0.64727706     0.26900
C1361       C  0.27670797  0.15266607  0.59900838     0.26900
C1362       C  0.27876729  0.10510953  0.63210555     0.26900
C1363       C  0.34536328  0.22847710  0.62605913     0.35500
C1364       C  0.30012764  0.20945696  0.60896866     0.35500
C1365       C  0.37316253  0.09337196  0.66775439     0.35500
C1366       C  0.32405194  0.07962792  0.66596837     0.35500
C1367       C  0.42609098  0.18906841  0.62482103    -0.22000
C1368       C  0.43252567  0.15520430  0.63358493    -0.22000
C1369       C  0.25651210  0.12929640  0.58291469    -0.22000
C1370       C  0.25716665  0.09963187  0.60431483    -0.22000
C1371       C  0.32700510  0.25737971  0.61740356    -0.23000
C1372       C  0.29820267  0.24524176  0.60629421    -0.23000
C1373       C  0.37066696  0.06492978  0.68975228    -0.23000
C1374       C  0.33978416  0.05627258  0.68875021    -0.23000
C1375       C  0.37810369  0.22679675  0.62503158    -0.18400
C1376       C  0.40198205  0.10839583  0.65958494    -0.18400
C1377       C  0.29134817  0.07962243  0.65679051    -0.18400
C1378       C  0.28316635  0.18694659  0.58698897    -0.18400
H1379       H  0.44223265  0.20643362  0.61264109     0.14500
H1380       H  0.45456092  0.14148038  0.62970817     0.14500
H1381       H  0.24243500  0.13335397  0.55870988     0.14500
H1382       H  0.24483584  0.07601959  0.59869061     0.14500
H1383       H  0.33473342  0.28370306  0.61498528     0.12800
H1384       H  0.27944257  0.26043320  0.59343804     0.12800
H1385       H  0.38923624  0.05180031  0.70518569     0.12800
H1386       H  0.33066983  0.03515406  0.70375189     0.12800
H1387       H  0.36070323  0.16439073  0.65847934     0.26100
H1388       H  0.30549463  0.14896218  0.64706705     0.26100
C1389       C  0.76786204  0.20640019  0.73689048     0.80100
N1390       N  0.73735392  0.20695115  0.74543681    -0.78200
C1391       C  0.71761086  0.23210164  0.73282672     0.82600
N1392       N  0.72858296  0.25693476  0.71148412    -0.78100
C1393       C  0.75903961  0.25592078  0.70156889     0.82700
N1394       N  0.77895909  0.23070181  0.71450138    -0.79800
N1395       N  0.66359360  0.34592121  0.61633324    -0.36700
N1396       N  0.69042421  0.41036899  0.61938524    -0.57300
N1397       N  0.63033958  0.44709658  0.59486202    -0.36700
N1398       N  0.60319185  0.38081514  0.59566082    -0.57300
C1399       C  0.69116875  0.34041121  0.63403481     0.26900
C1400       C  0.64266719  0.32542315  0.63138475     0.26900
C1401       C  0.64524684  0.47122463  0.61567625     0.26900
C1402       C  0.59913394  0.45552772  0.59047288     0.26900
C1403       C  0.71650193  0.39121857  0.61368471     0.35500
C1404       C  0.69635522  0.44290875  0.61043447     0.35500
C1405       C  0.59776882  0.34660929  0.59461033     0.35500
C1406       C  0.58161247  0.39668178  0.57362095     0.35500
C1407       C  0.68780428  0.31612530  0.66065428    -0.22000
C1408       C  0.65691264  0.30640022  0.65895765    -0.22000
C1409       C  0.62298260  0.49649892  0.62380738    -0.22000
C1410       C  0.59427819  0.48710188  0.60727849    -0.22000
C1411       C  0.73978451  0.41153535  0.60073185    -0.23000
C1412       C  0.72703240  0.44472494  0.59887482    -0.23000
C1413       C  0.57340571  0.33990113  0.57077060    -0.23000
C1414       C  0.56368591  0.37121353  0.55674017    -0.23000
C1415       C  0.71899461  0.35695372  0.62548544    -0.18400
C1416       C  0.61173773  0.32245502  0.61878116    -0.18400
C1417       C  0.57566947  0.43346199  0.57363149    -0.18400
C1418       C  0.67861834  0.46983164  0.62546586    -0.18400
H1419       H  0.70538402  0.30765104  0.68006925     0.14500
H1420       H  0.64614057  0.28782507  0.67610381     0.14500
H1421       H  0.62691251  0.51946425  0.63959664     0.14500
H1422       H  0.57209924  0.50101605  0.60926513     0.14500
H1423       H  0.76354150  0.40348686  0.59500287     0.12800
H1424       H  0.73950782  0.46790438  0.59259225     0.12800
H1425       H  0.56355663  0.31504479  0.56433827     0.12800
H1426       H  0.54531381  0.37368938  0.53640671     0.12800
H1427       H  0.65973197  0.36168650  0.59393160     0.26100
H1428       H  0.64108362  0.42530272  0.58394930     0.26100
N1429       N  0.56281812  0.88700227  0.59882184    -0.36700
N1430       N  0.54447852  0.81953706  0.61288381    -0.57300
N1431       N  0.60606825  0.78860887  0.60177908    -0.36700
N1432       N  0.62800145  0.85656625  0.59327088    -0.57300
C1433       C  0.53399923  0.89266280  0.61256226     0.26900
C1434       C  0.58062400  0.91419807  0.60822991     0.26900
C1435       C  0.59537099  0.76834907  0.62859223     0.26900
C1436       C  0.63714759  0.78236174  0.59774937     0.26900
C1437       C  0.51611101  0.83350490  0.60535881     0.35500
C1438       C  0.54143800  0.78553112  0.61639490     0.35500
C1439       C  0.63278236  0.89072189  0.58953154     0.35500
C1440       C  0.65315202  0.84012750  0.57905404     0.35500
C1441       C  0.53311880  0.92511284  0.62834413    -0.22000
C1442       C  0.56251336  0.93852465  0.62579041    -0.22000
C1443       C  0.62042683  0.74808528  0.64156172    -0.22000
C1444       C  0.64645409  0.75605458  0.62122646    -0.22000
C1445       C  0.49398456  0.80778432  0.60382002    -0.23000
C1446       C  0.51018434  0.77707827  0.61032556    -0.23000
C1447       C  0.66134893  0.89605157  0.57393154    -0.23000
C1448       C  0.67414540  0.86416936  0.56710335    -0.23000
C1449       C  0.51019194  0.86751266  0.61561701    -0.18400
C1450       C  0.61297715  0.91752607  0.60207947    -0.18400
C1451       C  0.65724672  0.80373389  0.57728017    -0.18400
C1452       C  0.56305513  0.76788721  0.63907873    -0.18400
H1453       H  0.51379269  0.93753470  0.64161806     0.14500
H1454       H  0.56997489  0.96293623  0.63677478     0.14500
H1455       H  0.61986178  0.72885695  0.66249730     0.14500
H1456       H  0.66975470  0.74477709  0.62449603     0.14500
H1457       H  0.46871423  0.81125555  0.60299860     0.12800
H1458       H  0.49970075  0.75237643  0.61529416     0.12800
H1459       H  0.67183772  0.92048857  0.56783250     0.12800
H1460       H  0.69651552  0.85984654  0.55491988     0.12800
H1461       H  0.57053626  0.86536311  0.58490865     0.26100
H1462       H  0.59312063  0.80651087  0.58635481     0.26100
N1463       N  0.88614901  0.07387790  0.71391265    -0.36700
N1464       N  0.91363353  0.14005194  0.73101421    -0.57300
N1465       N  0.95203357  0.12622051  0.65840167    -0.36700
N1466       N  0.92296344  0.05726076  0.65139423    -0.57300
C1467       C  0.87326993  0.08200025  0.74535279     0.26900
C1468       C  0.87672877  0.04228321  0.70477117     0.26900
C1469       C  0.96604731  0.15306316  0.67558092     0.26900
C1470       C  0.97246595  0.11027860  0.63620984     0.26900
C1471       C  0.88244662  0.14227169  0.73609758     0.35500
C1472       C  0.91952824  0.16618242  0.70864511     0.35500
C1473       C  0.89578430  0.04080103  0.64369934     0.35500
C1474       C  0.93521367  0.06455593  0.61941851     0.35500
C1475       C  0.85934671  0.05327659  0.75926367    -0.22000
C1476       C  0.86016719  0.02863896  0.73255625    -0.22000
C1477       C  0.99648752  0.15496740  0.66352168    -0.22000
C1478       C  0.00043902  0.12819991  0.63843649    -0.22000
C1479       C  0.86896115  0.16994689  0.71718537    -0.23000
C1480       C  0.89272894  0.18498582  0.69955233    -0.23000
C1481       C  0.89138021  0.03673448  0.60717348    -0.23000
C1482       C  0.91616128  0.05196942  0.59178843    -0.23000
C1483       C  0.86553225  0.11655020  0.75333638    -0.18400
C1484       C  0.87264288  0.03350594  0.66862127    -0.18400
C1485       C  0.96434593  0.08075844  0.61442606    -0.18400
C1486       C  0.94965538  0.17521650  0.70008500    -0.18400
H1487       H  0.84452376  0.05272013  0.78221548     0.14500
H1488       H  0.84524122  0.00659184  0.73104317     0.14500
H1489       H  0.01371825  0.17390767  0.67127245     0.14500
H1490       H  0.02142353  0.12265731  0.62371505     0.14500
H1491       H  0.84434053  0.17682020  0.71383461     0.12800
H1492       H  0.89029182  0.20583728  0.68061622     0.12800
H1493       H  0.87172106  0.02506098  0.59310512     0.12800
H1494       H  0.91956847  0.05416853  0.56333686     0.12800
H1495       H  0.89465120  0.09144364  0.69580062     0.26100
H1496       H  0.92870365  0.11955522  0.66124781     0.26100
N1497       N  0.61607788  0.12532085  0.83425478    -0.36700
N1498       N  0.62787573  0.17460883  0.88709136    -0.57300
N1499       N  0.59620702  0.13494834  0.94169421    -0.36700
N1500       N  0.59008904  0.08195118  0.88864859    -0.57300
C1501       C  0.63455879  0.14848556  0.81865986     0.26900
C1502       C  0.62436024  0.09369662  0.82225777     0.26900
C1503       C  0.61903613  0.15114827  0.96133169     0.26900
C1504       C  0.58520108  0.10828834  0.96063461     0.26900
C1505       C  0.62297114  0.19533918  0.85873734     0.35500
C1506       C  0.62489029  0.19419407  0.91610904     0.35500
C1507       C  0.58781669  0.06180213  0.85905948     0.35500
C1508       C  0.56677443  0.07244465  0.91034309     0.35500
C1509       C  0.65509679  0.13149232  0.79628585    -0.22000
C1510       C  0.64874550  0.09672542  0.79874171    -0.22000
C1511       C  0.62232759  0.13461575  0.99415192    -0.22000
C1512       C  0.60040166  0.10807892  0.99407075    -0.22000
C1513       C  0.61604692  0.22873343  0.86974200    -0.23000
C1514       C  0.61811154  0.22807117  0.90672763    -0.23000
C1515       C  0.56337672  0.03933487  0.86232939    -0.23000
C1516       C  0.55027581  0.04571565  0.89445549    -0.23000
C1517       C  0.63250833  0.18446367  0.82507217    -0.18400
C1518       C  0.60773411  0.06328478  0.82929573    -0.18400
C1519       C  0.56316560  0.08404212  0.94612733    -0.18400
C1520       C  0.63459389  0.18145191  0.94942941    -0.18400
H1521       H  0.67300562  0.14279254  0.78033976     0.14500
H1522       H  0.66029711  0.07607694  0.78438754     0.14500
H1523       H  0.63815763  0.14141878  0.01607512     0.14500
H1524       H  0.59714457  0.08995845  0.01556687     0.14500
H1525       H  0.61298437  0.25133739  0.85295483     0.12800
H1526       H  0.61610778  0.24973123  0.92471810     0.12800
H1527       H  0.55531834  0.02010787  0.84363148     0.12800
H1528       H  0.53134921  0.03096535  0.90477571     0.12800
H1529       H  0.59742382  0.13144974  0.85065132     0.26100
H1530       H  0.58776539  0.14169336  0.91615850     0.26100
C1531       C  0.98853834  0.77474459  0.51726910     0.80100
N1532       N  0.96372492  0.75487339  0.50747517    -0.78200
C1533       C  0.96121511  0.74164791  0.47368441     0.82600
N1534       N  0.98418465  0.74760268  0.45029535    -0.78100
C1535       C  0.00905283  0.76733700  0.45972629     0.82700
N1536       N  0.01108234  0.78032355  0.49318448    -0.79800
N1537       N  0.16350428  0.70150234  0.40345573    -0.36700
N1538       N  0.18010881  0.63007798  0.37079377    -0.57300
N1539       N  0.14836119  0.64694800  0.30586159    -0.36700
N1540       N  0.10714870  0.73311212  0.33556233    -0.57300
C1541       C  0.17186978  0.68303266  0.43277025     0.26900
C1542       C  0.14702326  0.72957294  0.41446132     0.26900
C1543       C  0.15674909  0.61305410  0.30017656     0.26900
C1544       C  0.11972778  0.65528171  0.28975961     0.26900
C1545       C  0.19808453  0.63518273  0.40066884     0.35500
C1546       C  0.19762178  0.61030750  0.34835929     0.35500
C1547       C  0.13048437  0.74748280  0.35454800     0.35500
C1548       C  0.11991181  0.71679776  0.30783184     0.35500
C1549       C  0.16160908  0.69992910  0.46305132    -0.22000
C1550       C  0.14578956  0.72939050  0.45143271    -0.22000
C1551       C  0.13261283  0.59930894  0.27891259    -0.22000
C1552       C  0.10924774  0.62535852  0.27325345    -0.22000
C1553       C  0.22665207  0.61901208  0.39768124    -0.23000
C1554       C  0.22688526  0.60361041  0.36463139    -0.23000
C1555       C  0.15831323  0.74405709  0.33637925    -0.23000
C1556       C  0.15148582  0.72451421  0.30633306    -0.23000
C1557       C  0.18842040  0.65128193  0.43240379    -0.18400
C1558       C  0.12760650  0.75033034  0.39164278    -0.18400
C1559       C  0.10382758  0.68928820  0.29162364    -0.18400
C1560       C  0.18541638  0.59592836  0.31556781    -0.18400
H1561       H  0.16426167  0.69135386  0.49051802     0.14500
H1562       H  0.13317976  0.74750458  0.46801702     0.14500
H1563       H  0.13093771  0.57295560  0.26972209     0.14500
H1564       H  0.08721296  0.62250578  0.25847731     0.14500
H1565       H  0.24540739  0.62011092  0.41752558     0.12800
H1566       H  0.24672343  0.58951834  0.35450264     0.12800
H1567       H  0.18158666  0.75056111  0.34625549     0.12800
H1568       H  0.16834205  0.71412072  0.28791150     0.12800
H1569       H  0.16709225  0.69363985  0.37732586     0.26100
H1570       H  0.16209273  0.66375876  0.32077446     0.26100
C1571       C  0.22294762  0.69633132  0.68252641     0.80100
N1572       N  0.20901344  0.66618424  0.69105831    -0.78200
C1573       C  0.18320815  0.66672219  0.71139997     0.82600
N1574       N  0.17257311  0.69689741  0.72484488    -0.78100
C1575       C  0.18665170  0.72691044  0.71804221     0.82700
N1576       N  0.21184617  0.72654837  0.69657204    -0.79800
C1577       C  0.23108309  0.53956711  0.60834190     0.80100
N1578       N  0.26257870  0.53368708  0.60570120    -0.78200
C1579       C  0.27806128  0.54772355  0.57840321     0.82600
N1580       N  0.26230635  0.56794260  0.55423922    -0.78100
C1581       C  0.23114989  0.57390974  0.55625863     0.82700
N1582       N  0.21521725  0.55928356  0.58311219    -0.79800
N1583       N  0.36905034  0.65995916  0.56219458    -0.36700
N1584       N  0.42455462  0.61467489  0.54882699    -0.57300
N1585       N  0.45501721  0.63452716  0.61525270    -0.36700
N1586       N  0.39758387  0.68468803  0.62745766    -0.57300
C1587       C  0.35996577  0.64431525  0.53171528     0.26900
C1588       C  0.34473311  0.67942271  0.57346450     0.26900
C1589       C  0.47903164  0.61577368  0.60076011     0.26900
C1590       C  0.46639801  0.65640179  0.64101281     0.26900
C1591       C  0.40484553  0.60696992  0.52108867     0.35500
C1592       C  0.45025191  0.59432084  0.54569799     0.35500
C1593       C  0.36662286  0.68389393  0.63504184     0.35500
C1594       C  0.41365499  0.67607376  0.65795522     0.35500
C1595       C  0.33015048  0.65613045  0.52145737    -0.22000
C1596       C  0.32080974  0.67930167  0.54734802    -0.22000
C1597       C  0.50656244  0.62511027  0.61888212    -0.22000
C1598       C  0.49873561  0.65096128  0.64366526    -0.22000
C1599       C  0.41827743  0.58245444  0.49953112    -0.23000
C1600       C  0.44659907  0.57405126  0.51514793    -0.23000
C1601       C  0.36316139  0.67562891  0.67067894    -0.23000
C1602       C  0.39288202  0.67030022  0.68505609    -0.23000
C1603       C  0.37241648  0.61179092  0.52256223    -0.18400
C1604       C  0.34130802  0.68878668  0.60981275    -0.18400
C1605       C  0.44673275  0.67851505  0.66277743    -0.18400
C1606       C  0.47583745  0.59168710  0.57100275    -0.18400
H1607       H  0.31541831  0.64612320  0.49994769     0.14500
H1608       H  0.29756449  0.69090743  0.54900836     0.14500
H1609       H  0.52995997  0.61502633  0.61418952     0.14500
H1610       H  0.51492677  0.66351923  0.66203570     0.14500
H1611       H  0.40806453  0.56965733  0.47657497     0.12800
H1612       H  0.46076971  0.55243354  0.50675766     0.12800
H1613       H  0.34148499  0.67252029  0.68457423     0.12800
H1614       H  0.39868480  0.66321783  0.71248918     0.12800
H1615       H  0.38857195  0.65223739  0.57738932     0.26100
H1616       H  0.43132934  0.63195921  0.60873787     0.26100
C1617       C  0.95897444  0.56037392  0.78179492     0.80100
N1618       N  0.98241157  0.53624432  0.78660043    -0.78200
C1619       C  0.99634177  0.52208719  0.75822804     0.82600
N1620       N  0.98723934  0.53215895  0.72514406    -0.78100
C1621       C  0.96409367  0.55592318  0.71955654     0.82700
N1622       N  0.94991746  0.57032402  0.74811865    -0.79800
N1623       N  0.13649365  0.40952638  0.70323647    -0.36700
N1624       N  0.08764848  0.36221546  0.70184853    -0.57300
N1625       N  0.12147772  0.31962004  0.64846506    -0.36700
N1626       N  0.17395695  0.36739407  0.65440712    -0.57300
C1627       C  0.11834701  0.42130691  0.72946967     0.26900
C1628       C  0.16486111  0.42304081  0.70851194     0.26900
C1629       C  0.10235515  0.29608588  0.66468822     0.26900
C1630       C  0.14403318  0.30311744  0.62873262     0.26900
C1631       C  0.07162056  0.39139687  0.70940699     0.35500
C1632       C  0.06681188  0.34011196  0.68810469     0.35500
C1633       C  0.19118057  0.39657532  0.65735215     0.35500
C1634       C  0.18307565  0.35107304  0.62410616     0.35500
C1635       C  0.13563680  0.44178161  0.75278071    -0.22000
C1636       C  0.16526988  0.44327435  0.73907897    -0.22000
C1637       C  0.11311945  0.26357092  0.65457489    -0.22000
C1638       C  0.13843824  0.26795664  0.63159268    -0.22000
C1639       C  0.04010891  0.38824588  0.70014362    -0.23000
C1640       C  0.03696924  0.35534820  0.68700333    -0.23000
C1641       C  0.21213468  0.39821177  0.63031128    -0.23000
C1642       C  0.20714713  0.37013827  0.60935965    -0.23000
C1643       C  0.08565171  0.41892565  0.72763313    -0.18400
C1644       C  0.18641631  0.42424708  0.68144330    -0.18400
C1645       C  0.17001608  0.31947642  0.61000616    -0.18400
C1646       C  0.07441660  0.30487263  0.68566975    -0.18400
H1647       H  0.12707506  0.45622900  0.77535907     0.14500
H1648       H  0.18418949  0.45917962  0.74902058     0.14500
H1649       H  0.10319782  0.23919724  0.66196011     0.14500
H1650       H  0.15192971  0.24736866  0.61944496     0.14500
H1651       H  0.02128769  0.40704543  0.70352473     0.12800
H1652       H  0.01505680  0.34382235  0.67881957     0.12800
H1653       H  0.22867993  0.41840348  0.62538997     0.12800
H1654       H  0.22029396  0.36644695  0.58559895     0.12800
H1655       H  0.12871419  0.39738381  0.67991174     0.26100
H1656       H  0.11893700  0.34632543  0.64989976     0.26100
N1657       N  0.88836421  0.58523928  0.52644130    -0.36700
N1658       N  0.83352723  0.64465869  0.49535063    -0.57300
N1659       N  0.79290566  0.59362862  0.57171516    -0.36700
N1660       N  0.84970844  0.56218135  0.59164293    -0.57300
C1661       C  0.90070262  0.60771089  0.50320354     0.26900
C1662       C  0.91024064  0.57938077  0.55241213     0.26900
C1663       C  0.78092917  0.62550114  0.56331715     0.26900
C1664       C  0.78649776  0.58528767  0.60602807     0.26900
C1665       C  0.85039868  0.62257912  0.47584075     0.35500
C1666       C  0.80792796  0.62850145  0.50594889     0.35500
C1667       C  0.87738606  0.54465400  0.59145906     0.35500
C1668       C  0.83035125  0.54350626  0.61185128     0.35500
C1669       C  0.93145207  0.61467678  0.51425527    -0.22000
C1670       C  0.93738724  0.59673759  0.54534853    -0.22000
C1671       C  0.76492551  0.63744213  0.59287112    -0.22000
C1672       C  0.76798552  0.61183205  0.61958506    -0.22000
C1673       C  0.83443627  0.59176121  0.47239926    -0.23000
C1674       C  0.80725398  0.59555585  0.49158955    -0.23000
C1675       C  0.87613474  0.51536724  0.61232689    -0.23000
C1676       C  0.84632162  0.51428955  0.62434555    -0.23000
C1677       C  0.88314281  0.62578406  0.47604780    -0.18400
C1678       C  0.90564689  0.56002314  0.58316333    -0.18400
C1679       C  0.80104409  0.55607261  0.62459982    -0.18400
C1680       C  0.78814290  0.64391563  0.53104449    -0.18400
H1681       H  0.94758048  0.63243678  0.50285478     0.14500
H1682       H  0.95881973  0.59745558  0.56162839     0.14500
H1683       H  0.75347048  0.66245909  0.59554744     0.14500
H1684       H  0.75964331  0.61381429  0.64653651     0.14500
H1685       H  0.84321615  0.56797396  0.46087143     0.12800
H1686       H  0.78989593  0.57604833  0.49567007     0.12800
H1687       H  0.89531132  0.49777797  0.61979956     0.12800
H1688       H  0.83831120  0.49574291  0.64282810     0.12800
H1689       H  0.86569120  0.57579693  0.52661367     0.26100
H1690       H  0.80638331  0.57834572  0.55509142     0.26100
N1691       N  0.05407303  0.84340552  0.70384417    -0.36700
N1692       N  0.10512166  0.89094096  0.71791701    -0.57300
N1693       N  0.08643883  0.94247410  0.66336282    -0.36700
N1694       N  0.03750811  0.89325549  0.64633727    -0.57300
C1695       C  0.07557365  0.82259169  0.72051329     0.26900
C1696       C  0.03759129  0.82378193  0.68060291     0.26900
C1697       C  0.11771663  0.94910582  0.66971386     0.26900
C1698       C  0.07691870  0.95193628  0.62919247     0.26900
C1699       C  0.10504114  0.86986495  0.74663494     0.35500
C1700       C  0.12126766  0.91893098  0.72803577     0.35500
C1701       C  0.01251217  0.87278846  0.65002549     0.35500
C1702       C  0.02627093  0.92282169  0.63139078     0.35500
C1703       C  0.07149692  0.78878107  0.70924876    -0.22000
C1704       C  0.04721540  0.78954894  0.68403898    -0.22000
C1705       C  0.12824233  0.96457250  0.63884347    -0.22000
C1706       C  0.10279911  0.96642710  0.61363995    -0.22000
C1707       C  0.12149014  0.88409597  0.77499973    -0.23000
C1708       C  0.13077705  0.91583098  0.76373816    -0.23000
C1709       C  0.98540155  0.88906366  0.63701985    -0.23000
C1710       C  0.99412616  0.92113717  0.62628473    -0.23000
C1711       C  0.10013648  0.83453934  0.74299922    -0.18400
C1712       C  0.01609410  0.83713809  0.65464261    -0.18400
C1713       C  0.04539390  0.94604084  0.61345686    -0.18400
C1714       C  0.13541947  0.94040762  0.70303507    -0.18400
H1715       H  0.08526684  0.76611769  0.71711426     0.14500
H1716       H  0.03869297  0.76778338  0.66875594     0.14500
H1717       H  0.15184831  0.97317256  0.63460017     0.14500
H1718       H  0.10358437  0.97656528  0.58674753     0.14500
H1719       H  0.12844969  0.87139665  0.79977784     0.12800
H1720       H  0.14525076  0.93329900  0.77898159     0.12800
H1721       H  0.96232605  0.87821279  0.63354175     0.12800
H1722       H  0.97944408  0.94024595  0.61315058     0.12800
H1723       H  0.05188916  0.87007635  0.70672213     0.26100
H1724       H  0.07180496  0.93180428  0.68205167     0.26100
N1725       N  0.07921487  0.61985767  0.85627907    -0.36700
N1726       N  0.14538237  0.61426201  0.88813999    -0.57300
N1727       N  0.11869698  0.60376584  0.95485869    -0.36700
N1728       N  0.05673910  0.60382082  0.92285712    -0.57300
C1729       C  0.09657632  0.60609904  0.82992621     0.26900
C1730       C  0.04892564  0.61111343  0.84999274     0.26900
C1731       C  0.14879692  0.60875559  0.96542701     0.26900
C1732       C  0.10517495  0.58066759  0.97674364     0.26900
C1733       C  0.14654776  0.62638832  0.85442720     0.35500
C1734       C  0.16535722  0.63339743  0.90833282     0.35500
C1735       C  0.03009981  0.61823641  0.90993728     0.35500
C1736       C  0.05275709  0.59701135  0.95725781     0.35500
C1737       C  0.07704571  0.58778607  0.80675738    -0.22000
C1738       C  0.04686399  0.59152023  0.81907655    -0.22000
C1739       C  0.15458950  0.59005236  0.99665077    -0.22000
C1740       C  0.12745007  0.57111890  0.00298629    -0.22000
C1741       C  0.16755615  0.65303672  0.85268393    -0.23000
C1742       C  0.17948855  0.65758172  0.88686761    -0.23000
C1743       C  0.00830136  0.62050416  0.93661498    -0.23000
C1744       C  0.02278182  0.60688261  0.96696371    -0.23000
C1745       C  0.12890206  0.61295096  0.82540768    -0.18400
C1746       C  0.02388989  0.61910539  0.87315167    -0.18400
C1747       C  0.07228556  0.57271048  0.97453726    -0.18400
C1748       C  0.16983490  0.62974431  0.94600494    -0.18400
H1749       H  0.08377568  0.57352380  0.78324778     0.14500
H1750       H  0.02606401  0.58018813  0.80730127     0.14500
H1751       H  0.17625879  0.58928794  0.01252499     0.14500
H1752       H  0.12399541  0.55417983  0.02545532     0.14500
H1753       H  0.17314379  0.66798747  0.82935660     0.12800
H1754       H  0.19608188  0.67708032  0.89481894     0.12800
H1755       H  0.98365654  0.62688582  0.93338730     0.12800
H1756       H  0.01172468  0.60157778  0.99198897     0.12800
H1757       H  0.08734124  0.63579270  0.87688048     0.26100
H1758       H  0.10802599  0.61702114  0.93361355     0.26100
C1759       C  0.73827542  0.23378937  0.27679544     0.80100
N1760       N  0.75262706  0.20919105  0.25705156    -0.78200
C1761       C  0.77598001  0.21767550  0.23496070     0.82600
N1762       N  0.78514532  0.25095358  0.23399246    -0.78100
C1763       C  0.77099499  0.27551744  0.25404731     0.82700
N1764       N  0.74743909  0.26701733  0.27537594    -0.79800
N1765       N  0.64027468  0.30761985  0.41588920    -0.36700
N1766       N  0.59426628  0.28363898  0.36218753    -0.57300
N1767       N  0.54715871  0.33600627  0.37646262    -0.36700
N1768       N  0.59369271  0.36174164  0.42823515    -0.57300
C1769       C  0.65726096  0.29024391  0.39178142     0.26900
C1770       C  0.65765176  0.33431016  0.42720908     0.26900
C1771       C  0.53660363  0.32445335  0.34391665     0.26900
C1772       C  0.53515647  0.36813540  0.38259135     0.26900
C1773       C  0.61414115  0.25666484  0.36853524     0.35500
C1774       C  0.56801967  0.27038282  0.34735823     0.35500
C1775       C  0.61505716  0.36536722  0.45539975     0.35500
C1776       C  0.56803499  0.38003053  0.43764296     0.35500
C1777       C  0.68606699  0.30571415  0.38803512    -0.22000
C1778       C  0.68641770  0.33357884  0.41079809    -0.22000
C1779       C  0.51653917  0.34971109  0.32911703    -0.22000
C1780       C  0.51543439  0.37712149  0.35361809    -0.22000
C1781       C  0.60070901  0.22613627  0.35820341    -0.23000
C1782       C  0.57131610  0.23466559  0.34497274    -0.23000
C1783       C  0.60320150  0.38559631  0.48222245    -0.23000
C1784       C  0.57347850  0.39495495  0.47111248    -0.23000
C1785       C  0.64636959  0.26108843  0.37334513    -0.18400
C1786       C  0.64713651  0.35956184  0.45108029    -0.18400
C1787       C  0.54206753  0.38809693  0.41425763    -0.18400
C1788       C  0.54467886  0.29095570  0.32962452    -0.18400
H1789       H  0.70453130  0.29841284  0.37014645     0.14500
H1790       H  0.70521531  0.35180137  0.41390024     0.14500
H1791       H  0.50401111  0.34855364  0.30355994     0.14500
H1792       H  0.50210150  0.40104587  0.35018235     0.14500
H1793       H  0.61213438  0.20101234  0.35760113     0.12800
H1794       H  0.55500991  0.21653072  0.33372990     0.12800
H1795       H  0.61574428  0.39504346  0.50571624     0.12800
H1796       H  0.55874978  0.41302589  0.48513330     0.12800
H1797       H  0.61791638  0.30141078  0.42429358     0.26100
H1798       H  0.56122341  0.32198646  0.39471811     0.26100
C1799       C  0.79727775  0.46193202  0.45042069     0.80100
N1800       N  0.79593032  0.48270388  0.42134464    -0.78200
C1801       C  0.76767289  0.49039287  0.40493515     0.82600
N1802       N  0.74107804  0.47750639  0.41810934    -0.78100
C1803       C  0.74223482  0.45736432  0.44780667     0.82700
N1804       N  0.77051017  0.44945882  0.46343849    -0.79800
C1805       C  0.01652941  0.46697228  0.22907020     0.80100
N1806       N  0.99231913  0.48898888  0.22185505    -0.78200
C1807       C  0.99113281  0.52027151  0.23723725     0.82600
N1808       N  0.01444466  0.52960580  0.26083176    -0.78100
C1809       C  0.03931121  0.50770112  0.26801804     0.82700
N1810       N  0.03978037  0.47602362  0.25221717    -0.79800
C1811       C  0.00838965  0.25130328  0.44456908     0.80100
N1812       N  0.02778112  0.27839434  0.44757075    -0.78200
C1813       C  0.03947439  0.28776617  0.48024121     0.82600
N1814       N  0.03101549  0.27037255  0.50973153    -0.78100
C1815       C  0.01088616  0.24370033  0.50713050     0.82700
N1816       N  0.00006505  0.23440630  0.47436428    -0.79800
N1817       N  0.11452004  0.46676843  0.44627570    -0.36700
N1818       N  0.15932926  0.41171211  0.47283503    -0.57300
N1819       N  0.21133031  0.42512374  0.42829650    -0.36700
N1820       N  0.16783526  0.47983141  0.40194838    -0.57300
C1821       C  0.09572901  0.44113055  0.45593002     0.26900
C1822       C  0.10097326  0.48161557  0.41697607     0.26900
C1823       C  0.21715847  0.39139901  0.43818957     0.26900
C1824       C  0.22165551  0.43149626  0.39453511     0.26900
C1825       C  0.13516041  0.41373980  0.49526296     0.35500
C1826       C  0.18241953  0.39335111  0.48984745     0.35500
C1827       C  0.14890354  0.50817118  0.39902137     0.35500
C1828       C  0.19640451  0.48898083  0.39132652     0.35500
C1829       C  0.06868528  0.44119268  0.43433652    -0.22000
C1830       C  0.07195538  0.46708446  0.40956700    -0.22000
C1831       C  0.23346230  0.37615706  0.41048810    -0.22000
C1832       C  0.23595533  0.40103121  0.38304825    -0.22000
C1833       C  0.14307043  0.39745293  0.52716584    -0.23000
C1834       C  0.17305475  0.38488424  0.52383639    -0.23000
C1835       C  0.16551026  0.53588402  0.38726747    -0.23000
C1836       C  0.19586641  0.52389686  0.38343695    -0.23000
C1837       C  0.10438194  0.41612070  0.48160030    -0.18400
C1838       C  0.11625980  0.50513315  0.39518702    -0.18400
C1839       C  0.21694927  0.46458818  0.37572226    -0.18400
C1840       C  0.20622743  0.37568023  0.47124148    -0.18400
H1841       H  0.04952225  0.42331670  0.43514659     0.14500
H1842       H  0.05580768  0.47299978  0.38740271     0.14500
H1843       H  0.24210329  0.34974683  0.40977929     0.14500
H1844       H  0.24680612  0.39693945  0.35759169     0.14500
H1845       H  0.12750090  0.39141912  0.54852414     0.12800
H1846       H  0.18467719  0.36716365  0.54205165     0.12800
H1847       H  0.15604916  0.56100887  0.37954159     0.12800
H1848       H  0.21480309  0.53781940  0.37228816     0.12800
H1849       H  0.13648837  0.47235747  0.45774478     0.26100
H1850       H  0.20037386  0.44349107  0.44426585     0.26100
N1851       N  0.89705683  0.35256151  0.58062069    -0.36700
N1852       N  0.91318845  0.32344425  0.64720370    -0.57300
N1853       N  0.87525739  0.37625277  0.68642448    -0.36700
N1854       N  0.86309781  0.40914616  0.61870976    -0.57300
C1855       C  0.91980044  0.32949556  0.57189984     0.26900
C1856       C  0.89707650  0.37812535  0.55645507     0.26900
C1857       C  0.89510206  0.36332767  0.71256854     0.26900
C1858       C  0.86298819  0.40705784  0.69702107     0.26900
C1859       C  0.91634605  0.29583033  0.62571584     0.35500
C1860       C  0.90730235  0.31073405  0.67941360     0.35500
C1861       C  0.85559584  0.41467512  0.58368970     0.35500
C1862       C  0.83967089  0.42385454  0.63777749     0.35500
C1863       C  0.93426256  0.34018583  0.54131172    -0.22000
C1864       C  0.91979218  0.37115552  0.53146453    -0.22000
C1865       C  0.89532357  0.38611207  0.74102408    -0.22000
C1866       C  0.87475181  0.41345480  0.73150127    -0.22000
C1867       C  0.91300538  0.26538935  0.64408259    -0.23000
C1868       C  0.90628082  0.27509247  0.67819941    -0.23000
C1869       C  0.82742514  0.43297387  0.58036023    -0.23000
C1870       C  0.81731202  0.43863497  0.61427820    -0.23000
C1871       C  0.92630076  0.29879238  0.59097690    -0.18400
C1872       C  0.87463162  0.40519008  0.55462815    -0.18400
C1873       C  0.84084603  0.42772701  0.67578732    -0.18400
C1874       C  0.91067359  0.33035633  0.71044952    -0.18400
H1875       H  0.95290412  0.32695012  0.52745035     0.14500
H1876       H  0.92495362  0.38651264  0.50828813     0.14500
H1877       H  0.90829028  0.38304532  0.76618676     0.14500
H1878       H  0.86946386  0.43540980  0.74822198     0.14500
H1879       H  0.91530452  0.23934681  0.63391453     0.12800
H1880       H  0.90139690  0.25826068  0.70011653     0.12800
H1881       H  0.81534706  0.44160820  0.55600100     0.12800
H1882       H  0.79626174  0.45320354  0.62008696     0.12800
H1883       H  0.88089425  0.35007667  0.60075193     0.26100
H1884       H  0.86923500  0.36369248  0.66269911     0.26100
N1885       N  0.89091268  0.35738971  0.16479603    -0.36700
N1886       N  0.83729432  0.34052911  0.11472133    -0.57300
N1887       N  0.87447647  0.34394257  0.05331589    -0.36700
N1888       N  0.92499628  0.36426015  0.10481988    -0.57300
C1889       C  0.86579212  0.37035828  0.18132543     0.26900
C1890       C  0.91632355  0.37472920  0.17673728     0.26900
C1891       C  0.84511449  0.34056654  0.03926898     0.26900
C1892       C  0.88941624  0.36904899  0.03550716     0.26900
C1893       C  0.82673866  0.33577018  0.14807103     0.35500
C1894       C  0.82142364  0.31843321  0.09288461     0.35500
C1895       C  0.94851485  0.35689003  0.12835131     0.35500
C1896       C  0.93628538  0.36069972  0.07217822     0.35500
C1897       C  0.87510761  0.39612602  0.20486329    -0.22000
C1898       C  0.90724902  0.39918398  0.20169212    -0.22000
C1899       C  0.84116774  0.36311515  0.01057684    -0.22000
C1900       C  0.86895970  0.38176113  0.00872694    -0.22000
C1901       C  0.80435979  0.31021480  0.14746604    -0.23000
C1902       C  0.80086170  0.29944919  0.11262002    -0.23000
C1903       C  0.97531754  0.34753489  0.11045877    -0.23000
C1904       C  0.96771649  0.35063350  0.07447575    -0.23000
C1905       C  0.83590046  0.35580159  0.17838032    -0.18400
C1906       C  0.94678662  0.36861794  0.16371869    -0.18400
C1907       C  0.92114414  0.37863324  0.04412314    -0.18400
C1908       C  0.82248431  0.31903086  0.05494878    -0.18400
H1909       H  0.86030179  0.41094288  0.22245684     0.14500
H1910       H  0.92198314  0.41752909  0.21565155     0.14500
H1911       H  0.82007867  0.36715948  0.99411430     0.14500
H1912       H  0.87349200  0.40189238  0.98964853     0.14500
H1913       H  0.79174645  0.30016380  0.16968351     0.12800
H1914       H  0.78444160  0.28042079  0.10296624     0.12800
H1915       H  0.99844859  0.34307536  0.12221823     0.12800
H1916       H  0.98395635  0.34905766  0.05282859     0.12800
H1917       H  0.89090570  0.33637963  0.14734598     0.26100
H1918       H  0.88368147  0.32927365  0.07468544     0.26100
N1919       N  0.84112025  0.61251174  0.30569988    -0.36700
N1920       N  0.81092171  0.65600260  0.36037715    -0.57300
N1921       N  0.87224670  0.68753821  0.37680126    -0.36700
N1922       N  0.89738977  0.64364590  0.31863839    -0.57300
C1923       C  0.81045127  0.60819009  0.29921627     0.26900
C1924       C  0.85679341  0.60151253  0.27689384     0.26900
C1925       C  0.85215681  0.70891752  0.39375992     0.26900
C1926       C  0.89630521  0.70607278  0.36443320     0.26900
C1927       C  0.79373482  0.62677613  0.35844175     0.35500
C1928       C  0.80972705  0.66696419  0.39482252     0.35500
C1929       C  0.90756092  0.61418622  0.30394804     0.35500
C1930       C  0.92130895  0.65591822  0.33813463     0.35500
C1931       C  0.80615184  0.59385506  0.26556175    -0.22000
C1932       C  0.83556193  0.59032990  0.25097117    -0.22000
C1933       C  0.86419626  0.74198295  0.39348499    -0.22000
C1934       C  0.89185556  0.74029192  0.37418456    -0.22000
C1935       C  0.78216494  0.61938272  0.39172509    -0.23000
C1936       C  0.79178613  0.64477720  0.41419440    -0.23000
C1937       C  0.93874935  0.60746595  0.31394596    -0.23000
C1938       C  0.94776402  0.63473007  0.33499655    -0.23000
C1939       C  0.78975228  0.60572591  0.32745427    -0.18400
C1940       C  0.88975751  0.59753924  0.27724325    -0.18400
C1941       C  0.92167791  0.69086179  0.34567976    -0.18400
C1942       C  0.82380035  0.69738508  0.40879658    -0.18400
H1943       H  0.78465333  0.58296972  0.25499486     0.14500
H1944       H  0.84092298  0.57751226  0.22621855     0.14500
H1945       H  0.85380368  0.76498033  0.40496179     0.14500
H1946       H  0.90709809  0.76151290  0.36863618     0.14500
H1947       H  0.76904043  0.59754247  0.40021089     0.12800
H1948       H  0.78654190  0.64586959  0.44207325     0.12800
H1949       H  0.95382938  0.58645417  0.30531817     0.12800
H1950       H  0.97138415  0.63978373  0.34487152     0.12800
H1951       H  0.85070041  0.61781570  0.33096765     0.26100
H1952       H  0.86971928  0.66092081  0.37441525     0.26100
N1953       N  0.91792600  0.14583562  0.29531180    -0.36700
N1954       N  0.87814877  0.08698584  0.28939089    -0.57300
N1955       N  0.90722637  0.05009090  0.35266335    -0.36700
N1956       N  0.94393375  0.11126577  0.36200736    -0.57300
C1957       C  0.89350547  0.15692952  0.27414437     0.26900
C1958       C  0.92645231  0.17250888  0.31601998     0.26900
C1959       C  0.87945159  0.03301080  0.34742470     0.26900
C1960       C  0.91972914  0.04414754  0.38644238     0.26900
C1961       C  0.87938775  0.10000470  0.25602809     0.35500
C1962       C  0.87116842  0.05359470  0.28550241     0.35500
C1963       C  0.96180793  0.13948662  0.35764968     0.35500
C1964       C  0.96021854  0.09005237  0.38517476     0.35500
C1965       C  0.88667243  0.19138482  0.28121831    -0.22000
C1966       C  0.90795868  0.20140688  0.30744245    -0.22000
C1967       C  0.87452271  0.01475802  0.37864561    -0.22000
C1968       C  0.89971196  0.02152163  0.40287116    -0.22000
C1969       C  0.87337551  0.07522339  0.23066411    -0.23000
C1970       C  0.86888665  0.04541170  0.24922210    -0.23000
C1971       C  0.98938441  0.13623682  0.37788523    -0.23000
C1972       C  0.98849269  0.10515212  0.39480512    -0.23000
C1973       C  0.87742283  0.13536582  0.24984100    -0.18400
C1974       C  0.95076934  0.17085796  0.34202398    -0.18400
C1975       C  0.94818640  0.05995674  0.40177871    -0.18400
C1976       C  0.86041746  0.03366758  0.31407072    -0.18400
H1977       H  0.86795313  0.20749311  0.26969979     0.14500
H1978       H  0.90902724  0.22672287  0.31955537     0.14500
H1979       H  0.85494198  0.99823396  0.38353717     0.14500
H1980       H  0.90252464  0.01145188  0.42977526     0.14500
H1981       H  0.87105619  0.07889858  0.20207865     0.12800
H1982       H  0.86385298  0.02092036  0.23689759     0.12800
H1983       H  0.00770150  0.15492997  0.38156793     0.12800
H1984       H  0.00599291  0.09606655  0.41400134     0.12800
H1985       H  0.92853101  0.12128440  0.29546222     0.26100
H1986       H  0.91772292  0.06479251  0.33327601     0.26100
O1987       O  0.91687996  0.28884022  0.75588299    -0.81000
O1988       O  0.01973378  0.18086985  0.80597578    -0.65700
O1989       O  0.96620205  0.26033004  0.78608458    -1.12300
C1990       C  0.05547098  0.28290778  0.71248649     1.05900
O1991       O  0.06219501  0.19424708  0.77323103    -0.78900
O1992       O  0.05566839  0.29059211  0.79841868    -0.66500
Ni1993     Ni  0.93028031  0.24186456  0.76787804     1.34900
C1994       C  0.03514672  0.31484207  0.80099801     0.84700
O1995       O  0.95417947  0.20507812  0.82968445    -0.79400
O1996       O  0.91363760  0.24186836  0.81488044    -0.89700
C1997       C  0.04679861  0.17241305  0.79183705     0.84200
O1998       O  0.94987043  0.23286885  0.72344909    -0.67900
O1999       O  0.07000987  0.26033482  0.73342416    -0.87200
C2000       C  0.96169496  0.20235348  0.72557579     0.85100
C2001       C  0.92506163  0.21733748  0.83486075     1.06600
H2002       H  0.01905517  0.22584225  0.74398168     0.38400
O2003       O  0.01801028  0.23996611  0.76517376    -1.09800
O2004       O  0.00788481  0.31217271  0.78649454    -0.66500
Ni2005     Ni  0.99326076  0.27815093  0.75117769     1.26300
O2006       O  0.97338550  0.19248042  0.75612869    -0.66700
O2007       O  0.02602172  0.29231624  0.71735179    -0.79000
C2008       C  0.93095300  0.31204572  0.73803905     0.84400
O2009       O  0.96129337  0.31238262  0.73455236    -0.66200
Ni2010     Ni  0.05865836  0.24365782  0.78219551     1.27400
Ni2011     Ni  0.98972132  0.22028815  0.79709026     1.26100
H2012       H  0.96350356  0.27517401  0.80658562     0.39000
C2013       C  0.99699617  0.22094451  0.07636298     0.80100
N2014       N  0.00749664  0.19524869  0.05483163    -0.78200
C2015       C  0.98985185  0.18531175  0.02614706     0.82600
N2016       N  0.96224870  0.20152691  0.01853980    -0.78100
C2017       C  0.95089367  0.22672764  0.03994740     0.82700
N2018       N  0.96830972  0.23620105  0.06913065    -0.79800
N2019       N  0.10144148  0.34003185  0.20519407    -0.36700
N2020       N  0.07764611  0.37248550  0.13902174    -0.57300
N2021       N  0.12259228  0.42893171  0.14733134    -0.36700
N2022       N  0.14429365  0.39740853  0.21534340    -0.57300
C2023       C  0.08347800  0.31405070  0.19299039     0.26900
C2024       C  0.11751973  0.32823939  0.23445335     0.26900
C2025       C  0.10192178  0.44322342  0.12278760     0.26900
C2026       C  0.14104278  0.45429476  0.16085782     0.26900
C2027       C  0.06743886  0.34003604  0.13353105     0.35500
C2028       C  0.07273986  0.38963918  0.10783028     0.35500
C2029       C  0.15259199  0.37842801  0.24461827     0.35500
C2030       C  0.16439738  0.42380989  0.21476577     0.35500
C2031       C  0.08643831  0.28623760  0.21633298    -0.22000
C2032       C  0.10826072  0.29511911  0.24236939    -0.22000
C2033       C  0.10772493  0.47829640  0.12047353    -0.22000
C2034       C  0.13261431  0.48512833  0.14405416    -0.22000
C2035       C  0.05615873  0.33671540  0.09853067    -0.23000
C2036       C  0.05942355  0.36799312  0.08239075    -0.23000
C2037       C  0.17715704  0.39358439  0.26339114    -0.23000
C2038       C  0.18478334  0.42194746  0.24457709    -0.23000
C2039       C  0.06740788  0.31321085  0.15943692    -0.18400
C2040       C  0.14381981  0.34407966  0.25053695    -0.18400
C2041       C  0.16479878  0.45007931  0.18838710    -0.18400
C2042       C  0.07855305  0.42503709  0.10223364    -0.18400
H2043       H  0.07564814  0.26129989  0.21359596     0.14500
H2044       H  0.11757548  0.27849231  0.26359017     0.14500
H2045       H  0.09519184  0.49720928  0.10388057     0.14500
H2046       H  0.14262360  0.51015842  0.14912615     0.14500
H2047       H  0.04618017  0.31425121  0.08578197     0.12800
H2048       H  0.05302132  0.37391051  0.05482517     0.12800
H2049       H  0.18944763  0.38435746  0.28735808     0.12800
H2050       H  0.20373644  0.43879027  0.25220490     0.12800
H2051       H  0.10462524  0.36328463  0.19259962     0.26100
H2052       H  0.12480269  0.40294265  0.15388382     0.26100
C2053       C  0.07137314  0.06572480  0.20965876     0.80100
N2054       N  0.08866494  0.03601323  0.21059695    -0.78200
C2055       C  0.07776130  0.00719273  0.19483148     0.82600
N2056       N  0.04914907  0.00763893  0.17819738    -0.78100
C2057       C  0.03134826  0.03690366  0.17782369     0.82700
N2058       N  0.04223779  0.06588536  0.19391571    -0.79800
C2059       C  0.29139776  0.23352791  0.31519620     0.80100
N2060       N  0.26562538  0.25442641  0.31162939    -0.78200
C2061       C  0.26187501  0.27653036  0.28415875     0.82600
N2062       N  0.28412896  0.27719878  0.25917227    -0.78100
C2063       C  0.31057613  0.25712347  0.26218308     0.82700
N2064       N  0.31382623  0.23455405  0.29018477    -0.79800
N2065       N  0.15745912  0.13663558  0.36370875    -0.36700
N2066       N  0.18379649  0.14026595  0.42993951    -0.57300
N2067       N  0.12642638  0.12330592  0.46755857    -0.36700
N2068       N  0.09707184  0.11966320  0.39830603    -0.57300
C2069       C  0.18423712  0.15357883  0.35791771     0.26900
C2070       C  0.13506957  0.14998844  0.34156222     0.26900
C2071       C  0.13849599  0.15053152  0.48681862     0.26900
C2072       C  0.09529414  0.11935743  0.47396048     0.26900
C2073       C  0.21061798  0.13545511  0.41280141     0.35500
C2074       C  0.19047489  0.14015655  0.46486918     0.35500
C2075       C  0.09163261  0.11526808  0.36270643     0.35500
C2076       C  0.07866438  0.09701474  0.41546057     0.35500
C2077       C  0.17893733  0.17798353  0.33117492    -0.22000
C2078       C  0.14762006  0.17563943  0.32071271    -0.22000
C2079       C  0.11399570  0.16412093  0.50652057    -0.22000
C2080       C  0.08719329  0.14410481  0.49915440    -0.22000
C2081       C  0.23532162  0.13029604  0.43721998    -0.23000
C2082       C  0.22246659  0.13336813  0.47055865    -0.23000
C2083       C  0.06966636  0.09001361  0.35716590    -0.23000
C2084       C  0.06167994  0.07836829  0.39028204    -0.23000
C2085       C  0.21258683  0.14730842  0.37764085    -0.18400
C2086       C  0.10615288  0.13410873  0.33530259    -0.18400
C2087       C  0.07473752  0.09659509  0.45327084    -0.18400
C2088       C  0.17137364  0.16113189  0.48592745    -0.18400
H2089       H  0.19571614  0.19556125  0.32049567     0.14500
H2090       H  0.13565139  0.19016273  0.29944986     0.14500
H2091       H  0.11520185  0.18591208  0.52451375     0.14500
H2092       H  0.06401672  0.14888433  0.50937965     0.14500
H2093       H  0.26009247  0.12896282  0.43164127     0.12800
H2094       H  0.23567788  0.13555175  0.49553779     0.12800
H2095       H  0.06028250  0.08082587  0.33185472     0.12800
H2096       H  0.04442163  0.05906433  0.39469121     0.12800
H2097       H  0.15489602  0.11535214  0.38038861     0.26100
H2098       H  0.13866883  0.10755675  0.44991837     0.26100
C2099       C  0.25526879  0.94482623  0.07720690     0.80100
N2100       N  0.26317195  0.96944091  0.10157684    -0.78200
C2101       C  0.25114566  0.00192696  0.09881920     0.82600
N2102       N  0.23168202  0.00984171  0.07077233    -0.78100
C2103       C  0.22430762  0.98673661  0.04537570     0.82700
N2104       N  0.23595890  0.95376343  0.04849482    -0.79800
N2105       N  0.34916273  0.16455658  0.09911608    -0.36700
N2106       N  0.38905831  0.10134922  0.07900259    -0.57300
N2107       N  0.44724987  0.13509525  0.08891321    -0.36700
N2108       N  0.40767352  0.19453563  0.11129262    -0.57300
C2109       C  0.33062412  0.13819012  0.10696079     0.26900
C2110       C  0.34069198  0.19081249  0.12079849     0.26900
C2111       C  0.45686058  0.10160982  0.08287693     0.26900
C2112       C  0.46475534  0.14980462  0.11628072     0.26900
C2113       C  0.35868967  0.09309891  0.07255481     0.35500
C2114       C  0.40637869  0.08070000  0.05751947     0.35500
C2115       C  0.38873140  0.22239268  0.11436142     0.35500
C2116       C  0.43720885  0.20567140  0.11124064     0.35500
C2117       C  0.30868463  0.14848109  0.13173505    -0.22000
C2118       C  0.31457243  0.18207832  0.13982258    -0.22000
C2119       C  0.48244557  0.09506148  0.10609713    -0.22000
C2120       C  0.48685220  0.12478106  0.12754034    -0.22000
C2121       C  0.35646137  0.06728830  0.04730916    -0.23000
C2122       C  0.38643793  0.06017626  0.03689511    -0.23000
C2123       C  0.40607007  0.25171629  0.11599303    -0.23000
C2124       C  0.43685710  0.24147397  0.11254750    -0.23000
C2125       C  0.33333392  0.10490369  0.09272940    -0.18400
C2126       C  0.35910914  0.21973151  0.12849206    -0.18400
C2127       C  0.46036264  0.18560046  0.12893466    -0.18400
C2128       C  0.43978950  0.07710142  0.05986745    -0.18400
H2129       H  0.29107614  0.13307658  0.14402958     0.14500
H2130       H  0.30275041  0.19729522  0.15981016     0.14500
H2131       H  0.49533617  0.07079521  0.10896841     0.14500
H2132       H  0.50454037  0.12762282  0.14864770     0.14500
H2133       H  0.33533001  0.05485248  0.03759298     0.12800
H2134       H  0.39253186  0.04118964  0.01708422     0.12800
H2135       H  0.39728931  0.27663762  0.12383062     0.12800
H2136       H  0.45699796  0.25733353  0.11794269     0.12800
H2137       H  0.36751014  0.16355938  0.08133905     0.26100
H2138       H  0.42887748  0.14735504  0.07451212     0.26100
N2139       N  0.10462990  0.08043649  0.91648408    -0.36700
N2140       N  0.15469761  0.07484498  0.86614063    -0.57300
N2141       N  0.11216493  0.10165247  0.80793187    -0.36700
N2142       N  0.06441518  0.11128292  0.86022576    -0.57300
C2143       C  0.13002463  0.07793929  0.93892255     0.26900
C2144       C  0.08168896  0.09631225  0.93484395     0.26900
C2145       C  0.13857584  0.09558095  0.78920174     0.26900
C2146       C  0.09312503  0.12554157  0.79044022     0.26900
C2147       C  0.17050045  0.06223203  0.89570708     0.35500
C2148       C  0.17249656  0.06689333  0.83773986     0.35500
C2149       C  0.04326287  0.10362411  0.88470726     0.35500
C2150       C  0.04833640  0.11959373  0.82989384     0.35500
C2151       C  0.12313519  0.09158433  0.97192552    -0.22000
C2152       C  0.09273507  0.10367839  0.96927488    -0.22000
C2153       C  0.13595352  0.11496071  0.75801602    -0.22000
C2154       C  0.10789173  0.13444936  0.75922979    -0.22000
C2155       C  0.19910712  0.04817404  0.88619193    -0.23000
C2156       C  0.20021209  0.05059689  0.84988115    -0.23000
C2157       C  0.01310830  0.10669408  0.86992995    -0.23000
C2158       C  0.01631271  0.11649939  0.83489652    -0.23000
C2159       C  0.15909596  0.06261036  0.93105046    -0.18400
C2160       C  0.05104945  0.10414309  0.92134621    -0.18400
C2161       C  0.06237954  0.13742800  0.80188361    -0.18400
C2162       C  0.16491225  0.07378015  0.80084539    -0.18400
H2163       H  0.13872096  0.09330649  0.99522437     0.14500
H2164       H  0.08047532  0.11670636  0.99041812     0.14500
H2165       H  0.15297108  0.11595352  0.73717743     0.14500
H2166       H  0.09898758  0.15208633  0.73872909     0.14500
H2167       H  0.21725717  0.03643016  0.90324092     0.12800
H2168       H  0.21957987  0.04134837  0.83433072     0.12800
H2169       H  0.99126365  0.10468848  0.88371198     0.12800
H2170       H  0.99727003  0.12259760  0.81596726     0.12800
H2171       H  0.10259537  0.07069446  0.89066464     0.26100
H2172       H  0.10762372  0.08925633  0.83160631     0.26100
N2173       N  0.12113971  0.81677437  0.18292386    -0.36700
N2174       N  0.18598624  0.84334260  0.18485550    -0.57300
N2175       N  0.19321501  0.79627872  0.12785004    -0.36700
N2176       N  0.13032179  0.76822137  0.12716025    -0.57300
C2177       C  0.11684075  0.84795982  0.19880881     0.26900
C2178       C  0.09252954  0.80188529  0.18060620     0.26900
C2179       C  0.22247069  0.80013676  0.14166959     0.26900
C2180       C  0.19353759  0.76671063  0.10955671     0.26900
C2181       C  0.17114323  0.87201167  0.19625009     0.35500
C2182       C  0.21388984  0.85364558  0.17277933     0.35500
C2183       C  0.10127513  0.75741197  0.13399889     0.35500
C2184       C  0.13925107  0.75540574  0.09548404     0.35500
C2185       C  0.08569018  0.85241927  0.20754289    -0.22000
C2186       C  0.07057025  0.82371201  0.19613150    -0.22000
C2187       C  0.24150715  0.77234726  0.13284067    -0.22000
C2188       C  0.22304265  0.75084821  0.11234332    -0.22000
C2189       C  0.19049601  0.90019666  0.19397404    -0.23000
C2190       C  0.21732068  0.88874227  0.17854945    -0.23000
C2191       C  0.09122766  0.73625482  0.10614108    -0.23000
C2192       C  0.11509259  0.73575684  0.08109376    -0.23000
C2193       C  0.13875838  0.87480203  0.20207017    -0.18400
C2194       C  0.08418219  0.76999116  0.16363494    -0.18400
C2195       C  0.17043969  0.75940849  0.08367835    -0.18400
C2196       C  0.23328090  0.83238202  0.15174807    -0.18400
H2197       H  0.07464641  0.87473425  0.21966882     0.14500
H2198       H  0.04556982  0.82002752  0.19722123     0.14500
H2199       H  0.26648623  0.76954151  0.13818496     0.14500
H2200       H  0.23095109  0.72794787  0.09839098     0.14500
H2201       H  0.18485138  0.92691485  0.19989029     0.12800
H2202       H  0.23585266  0.90540134  0.17073710     0.12800
H2203       H  0.06874732  0.72389793  0.10327330     0.12800
H2204       H  0.11513085  0.72132834  0.05636897     0.12800
H2205       H  0.14210917  0.80680933  0.17362011     0.26100
H2206       H  0.17537804  0.81518966  0.12594308     0.26100
N2207       N  0.82661500  0.12912618  0.06448074    -0.36700
N2208       N  0.88470260  0.09494479  0.08228651    -0.57300
N2209       N  0.84980469  0.05751579  0.13611038    -0.36700
N2210       N  0.78983579  0.09030981  0.11408402    -0.57300
C2211       C  0.84529908  0.13363785  0.03673241     0.26900
C2212       C  0.79725250  0.12995674  0.05106010     0.26900
C2213       C  0.87782790  0.04023590  0.13548144     0.26900
C2214       C  0.82922100  0.03634624  0.15142425     0.26900
C2215       C  0.89463357  0.12409615  0.06705186     0.35500
C2216       C  0.90764765  0.08489631  0.10547265     0.35500
C2217       C  0.76876887  0.11627080  0.10443497     0.35500
C2218       C  0.78080859  0.07423522  0.14455740     0.35500
C2219       C  0.82799840  0.13615345  0.00500100    -0.22000
C2220       C  0.79727091  0.13326276  0.01402442    -0.22000
C2221       C  0.87510342  0.00763322  0.14982970    -0.22000
C2222       C  0.84442265  0.00492315  0.15948443    -0.22000
C2223       C  0.92426156  0.13242640  0.08006148    -0.23000
C2224       C  0.93274933  0.10713706  0.10444090    -0.23000
C2225       C  0.74518954  0.11640168  0.12926387    -0.23000
C2226       C  0.75254802  0.08979650  0.15414411    -0.23000
C2227       C  0.87612478  0.14300386  0.04214618    -0.18400
C2228       C  0.77194129  0.13750942  0.07242231    -0.18400
C2229       C  0.79850597  0.04592455  0.16238273    -0.18400
C2230       C  0.90642712  0.05473526  0.12585492    -0.18400
H2231       H  0.83608652  0.14147207  0.97857785     0.14500
H2232       H  0.77714461  0.13657149  0.99591352     0.14500
H2233       H  0.89352037  0.98821472  0.15380572     0.14500
H2234       H  0.83475300  0.98258349  0.17217559     0.14500
H2235       H  0.93812746  0.15428714  0.07281735     0.12800
H2236       H  0.95460835  0.10553496  0.11995590     0.12800
H2237       H  0.72469212  0.13337925  0.12927733     0.12800
H2238       H  0.73878010  0.08297006  0.17681875     0.12800
H2239       H  0.83328410  0.13084530  0.09152054     0.26100
H2240       H  0.84590718  0.08341257  0.12965002     0.26100
C2241       C  0.26543838  0.03102707  0.11837292    -0.06200
C2242       C  0.25535764  0.06370897  0.10569272    -0.17300
C2243       C  0.27737290  0.08610177  0.09292864     0.11000
C2244       C  0.30932827  0.08008670  0.10207302    -0.06100
C2245       C  0.31818745  0.05221191  0.12445595    -0.17400
C2246       C  0.29627228  0.02747534  0.13297261     0.11000
S2247       S  0.26362063  0.11952488  0.06229577    -0.32300
S2248       S  0.30898790  0.99172869  0.16102730    -0.32300
H2249       H  0.27841990  0.98221031  0.16972666     0.29000
H2250       H  0.29107177  0.12008346  0.04235839     0.29000
H2251       H  0.23097774  0.06815552  0.09742072     0.19600
H2252       H  0.34230785  0.04923526  0.13428748     0.19600
C2253       C  0.26475329  0.90832812  0.08553596    -0.06200
C2254       C  0.28247164  0.90168577  0.11742436    -0.17300
C2255       C  0.27749395  0.87191296  0.13746485     0.11000
C2256       C  0.25390039  0.84944750  0.12584717    -0.06100
C2257       C  0.24326014  0.85143140  0.08982780    -0.17400
C2258       C  0.24954826  0.88031276  0.06910031     0.11000
S2259       S  0.29571616  0.86809536  0.18122394    -0.32300
S2260       S  0.23615186  0.88080534  0.02310356    -0.32300
H2261       H  0.26031538  0.90217859  0.01189999     0.29000
H2262       H  0.28985161  0.83269637  0.18523222     0.29000
H2263       H  0.29698671  0.92149488  0.12924131     0.19600
H2264       H  0.22722742  0.83258105  0.07889065     0.19600
C2265       C  0.17641400  0.04402817  0.96132156    -0.06200
C2266       C  0.16053854  0.01835824  0.98014741    -0.17300
C2267       C  0.17627494  0.99669091  0.00526105     0.11000
C2268       C  0.20854411  0.00101827  0.01272025    -0.06100
C2269       C  0.22380908  0.02826393  0.99586702    -0.17400
C2270       C  0.20786772  0.05051012  0.97161884     0.11000
S2271       S  0.15370251  0.96560848  0.02869821    -0.32300
S2272       S  0.22762693  0.08891319  0.95824125    -0.32300
H2273       H  0.20007776  0.10932673  0.95366822     0.29000
H2274       H  0.17744779  0.93984553  0.02940734     0.29000
H2275       H  0.13573895  0.01472592  0.97476308     0.19600
H2276       H  0.24784527  0.03394815  0.00386324     0.19600
C2277       C  0.24121896  0.16560475  0.36804294    -0.06200
C2278       C  0.26126482  0.15148209  0.34271667    -0.17300
C2279       C  0.28516735  0.17137843  0.32887201     0.11000
C2280       C  0.28932375  0.20544783  0.34143607    -0.06100
C2281       C  0.27400409  0.21578361  0.37237289    -0.17400
C2282       C  0.24753453  0.19828232  0.38278298     0.11000
S2283       S  0.30611037  0.15424467  0.29165375    -0.32300
S2284       S  0.21823292  0.22143265  0.40765920    -0.32300
H2285       H  0.23705265  0.24918959  0.41843686     0.29000
H2286       H  0.33385073  0.17134581  0.30124302     0.29000
H2287       H  0.25672940  0.12613557  0.33174665     0.19600
H2288       H  0.27748384  0.24180821  0.38210544     0.19600
C2289       C  0.33142460  0.25408943  0.23107497    -0.06200
C2290       C  0.34908297  0.22342892  0.22759444    -0.17300
C2291       C  0.36132502  0.21372300  0.19490327     0.11000
C2292       C  0.35547203  0.23487865  0.16458830    -0.06100
C2293       C  0.34127361  0.26735260  0.16860140    -0.17400
C2294       C  0.32951549  0.27737818  0.20163877     0.11000
S2295       S  0.37965862  0.17142846  0.19077250    -0.32300
S2296       S  0.30987770  0.31878684  0.20318996    -0.32300
H2297       H  0.31924975  0.32540067  0.23886188     0.29000
H2298       H  0.35844758  0.15537834  0.21324835     0.29000
H2299       H  0.35066874  0.20524026  0.24940534     0.19600
H2300       H  0.33748966  0.28393807  0.14546645     0.19600
C2301       C  0.08145782  0.09429509  0.23280976    -0.06200
C2302       C  0.05860041  0.11319222  0.25122881    -0.17300
C2303       C  0.06660848  0.13045901  0.28285089     0.11000
C2304       C  0.09758133  0.12729516  0.29711133    -0.06100
C2305       C  0.12098027  0.11274966  0.27572912    -0.17400
C2306       C  0.11336588  0.09751696  0.24308642     0.11000
S2307       S  0.03598338  0.15346828  0.30517274    -0.32300
S2308       S  0.14464073  0.08039355  0.21631280    -0.32300
H2309       H  0.16809081  0.10171531  0.23097854     0.29000
H2310       H  0.05622851  0.17599496  0.32362969     0.29000
H2311       H  0.03407714  0.11229644  0.24272038     0.19600
H2312       H  0.14513055  0.11097464  0.28561447     0.19600
C2313       C  0.93653507  0.04006698  0.13991923    -0.06200
C2314       C  0.94341811  0.04387142  0.17648660    -0.17300
C2315       C  0.97424439  0.04107397  0.18972799     0.11000
C2316       C  0.99863607  0.03533092  0.16571122    -0.06100
C2317       C  0.99159298  0.02816037  0.12975034    -0.17400
C2318       C  0.96057655  0.03003279  0.11665843     0.11000
S2319       S  0.98115602  0.04588354  0.23727248    -0.32300
S2320       S  0.95320299  0.02205532  0.06970345    -0.32300
H2321       H  0.92149058  0.01346396  0.07287695     0.29000
H2322       H  0.00679337  0.02237915  0.23966038     0.29000
H2323       H  0.92498665  0.05101963  0.19445072     0.19600
H2324       H  0.01036354  0.02242919  0.11161377     0.19600
C2325       C  0.09565249  0.97492623  0.19777672    -0.06200
C2326       C  0.10167862  0.95729946  0.16623313    -0.17300
C2327       C  0.11690178  0.92533048  0.16700589     0.11000
C2328       C  0.12508354  0.91000249  0.20046748    -0.06100
C2329       C  0.11999480  0.92809817  0.23221986    -0.17400
C2330       C  0.10567985  0.96092488  0.23110456     0.11000
S2331       S  0.12585250  0.90677386  0.12400627    -0.32300
S2332       S  0.09885435  0.98360224  0.27228264    -0.32300
H2333       H  0.12467805  0.96810224  0.29077419     0.29000
H2334       H  0.13476238  0.87318128  0.13434798     0.29000
H2335       H  0.09460081  0.96872547  0.14069608     0.19600
H2336       H  0.12668206  0.91628504  0.25767057     0.19600
C2337       C  0.17072140  0.32088003  0.26047531    -0.06200
C2338       C  0.18074494  0.31720603  0.29628119    -0.17300
C2339       C  0.21088693  0.30404821  0.30500467     0.11000
C2340       C  0.23096395  0.29343105  0.27734700    -0.06100
C2341       C  0.22005629  0.29569667  0.24174494    -0.17400
C2342       C  0.19031995  0.30926459  0.23300801     0.11000
S2343       S  0.22296706  0.30387001  0.35153044    -0.32300
S2344       S  0.17846703  0.31403641  0.18634163    -0.32300
H2345       H  0.20370592  0.29519157  0.17204627     0.29000
H2346       H  0.25398253  0.31371176  0.34545753     0.29000
H2347       H  0.16600933  0.32707743  0.31721783     0.19600
H2348       H  0.23494136  0.28685781  0.22053663     0.19600
C2349       C  0.05169768  0.28095422  0.14858640    -0.06200
C2350       C  0.06744778  0.25875344  0.12531429    -0.17300
C2351       C  0.05076054  0.23583954  0.10330799     0.11000
C2352       C  0.01749875  0.23528153  0.10510591    -0.06100
C2353       C  0.00286028  0.25349828  0.13260576    -0.17400
C2354       C  0.01960958  0.27612904  0.15444707     0.11000
S2355       S  0.07232796  0.21128776  0.07070787    -0.32300
S2356       S  0.99802991  0.29874451  0.18801559    -0.32300
H2357       H  0.02015565  0.32362942  0.19746769     0.29000
H2358       H  0.10255065  0.21694688  0.08550963     0.29000
H2359       H  0.09233139  0.26214539  0.12168147     0.19600
H2360       H  0.97769908  0.25186157  0.13565643     0.19600
C2361       C  0.03004079  0.12353543  0.94506962    -0.06200
C2362       C  0.01964319  0.10737694  0.97603454    -0.17300
C2363       C  0.00663364  0.12688900  0.00356015     0.11000
C2364       C  0.00288361  0.16277384  0.99907440    -0.06100
C2365       C  0.01128175  0.17851062  0.96732211    -0.17400
C2366       C  0.02580333  0.15962887  0.94084761     0.11000
S2367       S  0.99637854  0.10620789  0.04461409    -0.32300
S2368       S  0.04155220  0.18390483  0.90459790    -0.32300
H2369       H  0.07162206  0.16823412  0.90764332     0.29000
H2370       H  0.99971447  0.07208206  0.03224660     0.29000
H2371       H  0.02436755  0.08008778  0.97997310     0.19600
H2372       H  0.00829468  0.20622579  0.96413498     0.19600
C2373       C  0.88300124  0.17959261  0.03607280    -0.06200
C2374       C  0.88295229  0.20197850  0.06582464    -0.17300
C2375       C  0.89930748  0.23291013  0.06430831     0.11000
C2376       C  0.91759413  0.23806355  0.03435350    -0.06100
C2377       C  0.90461588  0.22577390  0.00190869    -0.17400
C2378       C  0.89171138  0.19279893  0.00268384     0.11000
S2379       S  0.90350009  0.26026569  0.10292094    -0.32300
S2380       S  0.89328596  0.16743974  0.96254852    -0.32300
H2381       H  0.89546445  0.13472363  0.97871712     0.29000
H2382       H  0.87805605  0.24657244  0.12098450     0.29000
H2383       H  0.87322765  0.19373204  0.09077050     0.19600
H2384       H  0.91454286  0.23424938  0.97714700     0.19600
C2385       C  0.99221188  0.23521610  0.53861405    -0.06200
C2386       C  0.00167389  0.25093886  0.57079253    -0.17300
C2387       C  0.97996341  0.27063417  0.58979113     0.11000
C2388       C  0.94831606  0.27230272  0.57742200    -0.06100
C2389       C  0.93799327  0.24917455  0.55115865    -0.17400
C2390       C  0.95979739  0.22879445  0.53310779     0.11000
S2391       S  0.99360867  0.29704801  0.62645819    -0.32300
S2392       S  0.94512323  0.19756604  0.50140827    -0.32300
H2393       H  0.97371270  0.17876845  0.49984600     0.29000
H2394       H  0.02410478  0.28242746  0.62951641     0.29000
H2395       H  0.02652600  0.25348864  0.57703810     0.19600
H2396       H  0.91320519  0.24786715  0.54396644     0.19600
C2397       C  0.99113657  0.24357821  0.41108815    -0.06200
C2398       C  0.95923616  0.23612681  0.41427990    -0.17300
C2399       C  0.94425952  0.21443875  0.38993203     0.11000
C2400       C  0.96064977  0.20286796  0.36006021    -0.06100
C2401       C  0.99007636  0.21650808  0.35295598    -0.17400
C2402       C  0.00608614  0.23599811  0.37885978     0.11000
S2403       S  0.90639544  0.19733456  0.40021176    -0.32300
S2404       S  0.04667805  0.24529944  0.37185413    -0.32300
H2405       H  0.04385991  0.27985255  0.38289719     0.29000
H2406       H  0.89948861  0.22086554  0.42761893     0.29000
H2407       H  0.94734061  0.24357500  0.43832056     0.19600
H2408       H  0.00189658  0.20888197  0.32906117     0.19600
C2409       C  0.05741569  0.31964654  0.48355125    -0.06200
C2410       C  0.07867543  0.32638068  0.45681028    -0.17300
C2411       C  0.09371496  0.35788221  0.45530185     0.11000
C2412       C  0.08741646  0.38330801  0.48136144    -0.06100
C2413       C  0.06685765  0.37647638  0.50869626    -0.17400
C2414       C  0.05153743  0.34490561  0.51008054     0.11000
S2415       S  0.12041609  0.36545054  0.41953439    -0.32300
S2416       S  0.02351718  0.33845928  0.54463073    -0.32300
H2417       H  0.02397176  0.37204551  0.55883886     0.29000
H2418       H  0.11994494  0.33206743  0.40480412     0.29000
H2419       H  0.08302075  0.30700154  0.43661558     0.19600
H2420       H  0.06283476  0.39603768  0.52877869     0.19600
C2421       C  0.96159477  0.54009310  0.23386540    -0.06200
C2422       C  0.93377198  0.52275100  0.24086214    -0.17300
C2423       C  0.90663036  0.54117470  0.25007162     0.11000
C2424       C  0.90727407  0.57750361  0.25033769    -0.06100
C2425       C  0.93294779  0.59414409  0.23550471    -0.17400
C2426       C  0.96068822  0.57592174  0.22873968     0.11000
S2427       S  0.87396652  0.51809359  0.26739790    -0.32300
S2428       S  0.99502912  0.59987383  0.21802752    -0.32300
H2429       H  0.00938567  0.57311583  0.19859321     0.29000
H2430       H  0.88460694  0.48473631  0.25820255     0.29000
H2431       H  0.93445554  0.49491287  0.24359707     0.19600
H2432       H  0.93346471  0.62202971  0.23567895     0.19600
C2433       C  0.97468051  0.38540053  0.18080106    -0.06200
C2434       C  0.99224077  0.40782245  0.15993120    -0.17300
C2435       C  0.01210740  0.43169383  0.17581439     0.11000
C2436       C  0.01501701  0.43294603  0.21310175    -0.06100
C2437       C  0.00232614  0.40681666  0.23370362    -0.17400
C2438       C  0.98169383  0.38317269  0.21791316     0.11000
S2439       S  0.02701134  0.46569775  0.14855960    -0.32300
S2440       S  0.96241133  0.35286795  0.24607514    -0.32300
H2441       H  0.98604498  0.35246456  0.27322040     0.29000
H2442       H  0.05216042  0.47367329  0.17220568     0.29000
H2443       H  0.98814276  0.40949879  0.13135867     0.19600
H2444       H  0.00464467  0.40810298  0.26257823     0.19600
C2445       C  0.06381715  0.51495210  0.29623638    -0.06200
C2446       C  0.08842997  0.49041959  0.30013101    -0.17300
C2447       C  0.10689109  0.48800896  0.33129136     0.11000
C2448       C  0.10204790  0.51196285  0.35909930    -0.06100
C2449       C  0.08054470  0.53950349  0.35359099    -0.17400
C2450       C  0.06168475  0.54174081  0.32201307     0.11000
S2451       S  0.13310795  0.45090318  0.33662651    -0.32300
S2452       S  0.03520974  0.57846212  0.31595995    -0.32300
H2453       H  0.04940199  0.59931643  0.34238353     0.29000
H2454       H  0.13446126  0.44229296  0.30020702     0.29000
H2455       H  0.09166597  0.47085719  0.27989663     0.19600
H2456       H  0.07747591  0.55821623  0.37473501     0.19600
C2457       C  0.82709185  0.44815515  0.46520849    -0.06200
C2458       C  0.84673909  0.46960777  0.48548862    -0.17300
C2459       C  0.86733986  0.45522754  0.51156239     0.11000
C2460       C  0.86615439  0.41958390  0.51892780    -0.06100
C2461       C  0.85026572  0.39801574  0.49485508    -0.17400
C2462       C  0.83155046  0.41206056  0.46721549     0.11000
S2463       S  0.89382001  0.48321588  0.53510205    -0.32300
S2464       S  0.81110914  0.38289389  0.43756410    -0.32300
H2465       H  0.80707258  0.40670713  0.40929471     0.29000
H2466       H  0.91206768  0.45725250  0.55251387     0.29000
H2467       H  0.84442688  0.49742015  0.48291629     0.19600
H2468       H  0.85039395  0.37036633  0.49930154     0.19600
C2469       C  0.76613655  0.51262466  0.37307894    -0.06200
C2470       C  0.74194961  0.53779252  0.36895764    -0.17300
C2471       C  0.74599661  0.56671291  0.34710697     0.11000
C2472       C  0.77557688  0.57116764  0.33186527    -0.06100
C2473       C  0.79631746  0.54245587  0.33014806    -0.17400
C2474       C  0.79131986  0.51288157  0.34970758     0.11000
S2475       S  0.71537511  0.59964218  0.34493947    -0.32300
S2476       S  0.81921798  0.47749851  0.34575037    -0.32300
H2477       H  0.79814421  0.45192359  0.35561469     0.29000
H2478       H  0.72860499  0.61920262  0.31777043     0.29000
H2479       H  0.72137763  0.53674562  0.38520761     0.19600
H2480       H  0.81841655  0.54406951  0.31679221     0.19600
C2481       C  0.66806532  0.38834578  0.46036730    -0.06200
C2482       C  0.66181993  0.42005432  0.44325885    -0.17300
C2483       C  0.68412522  0.44564634  0.44326634     0.11000
C2484       C  0.71424730  0.43853428  0.45876829    -0.06100
C2485       C  0.71870531  0.40878136  0.48037026    -0.17400
C2486       C  0.69551566  0.38376932  0.48168461     0.11000
S2487       S  0.67269096  0.48595887  0.42196771    -0.32300
S2488       S  0.70146636  0.34551181  0.50884570    -0.32300
H2489       H  0.72986475  0.35552806  0.52562264     0.29000
H2490       H  0.69134395  0.50621543  0.44509668     0.29000
H2491       H  0.63990944  0.42428493  0.42821735     0.19600
H2492       H  0.74106087  0.40375503  0.49412997     0.19600
C2493       C  0.85005474  0.14891745  0.22790886    -0.06200
C2494       C  0.82028029  0.13541056  0.23427933    -0.17300
C2495       C  0.79312519  0.15546822  0.22837882     0.11000
C2496       C  0.79624723  0.19049993  0.21902178    -0.06100
C2497       C  0.82460088  0.20048861  0.20386861    -0.17400
C2498       C  0.85154264  0.17931138  0.20740658     0.11000
S2499       S  0.75596879  0.13594691  0.23674496    -0.32300
S2500       S  0.88766799  0.19405953  0.18931232    -0.32300
H2501       H  0.90421000  0.16239519  0.19322097     0.29000
H2502       H  0.73863530  0.15808307  0.21328647     0.29000
H2503       H  0.81809789  0.11058878  0.24718470     0.19600
H2504       H  0.82686648  0.22623328  0.19304627     0.19600
C2505       C  0.71305049  0.22535881  0.30018474    -0.06200
C2506       C  0.72026041  0.22174665  0.33675637    -0.17300
C2507       C  0.69746196  0.22885276  0.36185894     0.11000
C2508       C  0.66759817  0.24130267  0.34981424    -0.06100
C2509       C  0.65955599  0.24012814  0.31301954    -0.17400
C2510       C  0.68201166  0.23153714  0.28813456     0.11000
S2511       S  0.70889653  0.22562834  0.40852815    -0.32300
S2512       S  0.67203095  0.23328874  0.24090121    -0.32300
H2513       H  0.63930086  0.23266604  0.24474297     0.29000
H2514       H  0.67825345  0.22485629  0.42133438     0.29000
H2515       H  0.74430401  0.21641225  0.34579407     0.19600
H2516       H  0.63662393  0.24921505  0.30334653     0.19600
C2517       C  0.78299492  0.31042518  0.25345627    -0.06200
C2518       C  0.76726239  0.33434526  0.23089909    -0.17300
C2519       C  0.78460282  0.35672926  0.21029588     0.11000
C2520       C  0.81768900  0.35312460  0.21139841    -0.06100
C2521       C  0.83246351  0.33565330  0.24041372    -0.17400
C2522       C  0.81502037  0.31469130  0.26212998     0.11000
S2523       S  0.76390565  0.38434180  0.17844507    -0.32300
S2524       S  0.83550281  0.28867518  0.29571956    -0.32300
H2525       H  0.80834052  0.28016630  0.31405821     0.29000
H2526       H  0.78942562  0.40623841  0.17379956     0.29000
H2527       H  0.74224913  0.33216867  0.22536687     0.19600
H2528       H  0.85787000  0.33413120  0.24302583     0.19600
C2529       C  0.95414171  0.56351485  0.68230990    -0.06200
C2530       C  0.96477802  0.54045515  0.65577481    -0.17300
C2531       C  0.95134025  0.54075035  0.62152492     0.11000
C2532       C  0.92721004  0.56467262  0.61368327    -0.06100
C2533       C  0.91943046  0.59062061  0.63809208    -0.17400
C2534       C  0.93272142  0.59046779  0.67255301     0.11000
S2535       S  0.96293446  0.50882208  0.58910268    -0.32300
S2536       S  0.92173101  0.62460743  0.70288790    -0.32300
H2537       H  0.89378134  0.63483273  0.68441606     0.29000
H2538       H  0.98968874  0.49618916  0.60830159     0.29000
H2539       H  0.98206132  0.52038933  0.66225861     0.19600
H2540       H  0.90147040  0.60973812  0.63062884     0.19600
C2541       C  0.02338869  0.49873140  0.76177474    -0.06200
C2542       C  0.04916987  0.50722696  0.74146716    -0.17300
C2543       C  0.06963265  0.48172740  0.72962992     0.11000
C2544       C  0.06615118  0.44740461  0.74146366    -0.06100
C2545       C  0.04226529  0.43967467  0.76494140    -0.17400
C2546       C  0.02050658  0.46496378  0.77478295     0.11000
S2547       S  0.09617932  0.49398446  0.69536274    -0.32300
S2548       S  0.98735739  0.45201634  0.79965156    -0.32300
H2549       H  0.99270600  0.47769221  0.82537147     0.29000
H2550       H  0.09106766  0.46444914  0.67433310     0.29000
H2551       H  0.05092677  0.53316607  0.73085936     0.19600
H2552       H  0.03925149  0.41328066  0.77346082     0.19600
C2553       C  0.99114896  0.61385881  0.86049348    -0.06200
C2554       C  0.97721292  0.58292896  0.87039853    -0.17300
C2555       C  0.95671376  0.56667531  0.84666713     0.11000
C2556       C  0.95101726  0.58167070  0.81272099    -0.06100
C2557       C  0.95630971  0.61711646  0.80858982    -0.17400
C2558       C  0.97766905  0.63319958  0.83192217     0.11000
S2559       S  0.94827800  0.52225169  0.85562826    -0.32300
S2560       S  0.99040615  0.67593365  0.82127124    -0.32300
H2561       H  0.00532644  0.68226237  0.85460457     0.29000
H2562       H  0.92681419  0.51871491  0.82657495     0.29000
H2563       H  0.98617914  0.56856738  0.89349450     0.19600
H2564       H  0.94978332  0.62994854  0.78364649     0.19600
C2565       C  0.31191112  0.54328702  0.57424502    -0.06200
C2566       C  0.32087195  0.53472353  0.53959812    -0.17300
C2567       C  0.34240025  0.55495741  0.52208158     0.11000
C2568       C  0.35646282  0.58272006  0.54054135    -0.06100
C2569       C  0.35372549  0.58393584  0.57804987    -0.17400
C2570       C  0.33158379  0.56431860  0.59502207     0.11000
S2571       S  0.34908072  0.54474446  0.47632761    -0.32300
S2572       S  0.32540401  0.57172140  0.64168352    -0.32300
H2573       H  0.31558669  0.53782315  0.64770756     0.29000
H2574       H  0.35486889  0.57879806  0.46617159     0.29000
H2575       H  0.30695254  0.51667877  0.52404524     0.19600
H2576       H  0.36716098  0.60187357  0.59404168     0.19600
C2577       C  0.21383583  0.51893112  0.63407380    -0.06200
C2578       C  0.18689933  0.50241451  0.62116250    -0.17300
C2579       C  0.17630565  0.47288739  0.63799669     0.11000
C2580       C  0.19328253  0.45941296  0.66821837    -0.06100
C2581       C  0.21749555  0.47863764  0.68397494    -0.17400
C2582       C  0.22736254  0.50891578  0.66760013     0.11000
S2583       S  0.14266611  0.45091733  0.61884595    -0.32300
S2584       S  0.25729083  0.53358317  0.69034228    -0.32300
H2585       H  0.25007544  0.56477075  0.67227712     0.29000
H2586       H  0.13616423  0.47395204  0.59038048     0.29000
H2587       H  0.17589675  0.51065209  0.59603650     0.19600
H2588       H  0.22938496  0.46945395  0.70826224     0.19600
C2589       C  0.30891534  0.69403280  0.62391617    -0.06200
C2590       C  0.28668204  0.66802792  0.61865742    -0.17300
C2591       C  0.25750714  0.66965446  0.63489659     0.11000
C2592       C  0.25102260  0.69624841  0.65972176    -0.06100
C2593       C  0.27276940  0.72283582  0.66403204    -0.17400
C2594       C  0.30106660  0.72237139  0.64593104     0.11000
S2595       S  0.22928975  0.63782142  0.62149279    -0.32300
S2596       S  0.32657004  0.75829335  0.65282235    -0.32300
H2597       H  0.33976692  0.75572700  0.61902102     0.29000
H2598       H  0.20346195  0.66112848  0.62109483     0.29000
H2599       H  0.29210926  0.64603984  0.60189327     0.19600
H2600       H  0.26806119  0.74397078  0.68216451     0.19600
C2601       C  0.16925541  0.63537376  0.72500631    -0.06200
C2602       C  0.18774044  0.61726501  0.75032863    -0.17300
C2603       C  0.17501929  0.60690815  0.78259432     0.11000
C2604       C  0.14250255  0.61367186  0.78872684    -0.06100
C2605       C  0.12343342  0.62592921  0.75977266    -0.17400
C2606       C  0.13642137  0.63532907  0.72758224     0.11000
S2607       S  0.20218370  0.58997706  0.81658322    -0.32300
S2608       S  0.11072250  0.65352760  0.69298064    -0.32300
H2609       H  0.13348016  0.65331100  0.66647490     0.29000
H2610       H  0.22788339  0.58385036  0.79454345     0.29000
H2611       H  0.21300953  0.61676366  0.74766581     0.19600
H2612       H  0.09871970  0.63164576  0.76289288     0.19600
C2613       C  0.17228348  0.75908467  0.73247347    -0.06200
C2614       C  0.15117944  0.75589003  0.76074777    -0.17300
C2615       C  0.12949009  0.78222120  0.76843548     0.11000
C2616       C  0.12857000  0.81207282  0.74719014    -0.06100
C2617       C  0.15262293  0.81748145  0.72305435    -0.17400
C2618       C  0.17475376  0.79154205  0.71565538     0.11000
S2619       S  0.10175894  0.77522909  0.80305533    -0.32300
S2620       S  0.20364286  0.79987155  0.68244783    -0.32300
H2621       H  0.19508118  0.83453621  0.67542842     0.29000
H2622       H  0.09409240  0.81031893  0.80834436     0.29000
H2623       H  0.15008182  0.73186544  0.77546447     0.19600
H2624       H  0.15229511  0.84106480  0.70752057     0.19600
C2625       C  0.21586166  0.59567341  0.52828898    -0.06200
C2626       C  0.22960761  0.62747393  0.52109435    -0.17300
C2627       C  0.22084689  0.64674471  0.49071458     0.11000
C2628       C  0.19751340  0.63404613  0.46677710    -0.06100
C2629       C  0.18283771  0.60294529  0.47474732    -0.17400
C2630       C  0.19198907  0.58343897  0.50493547     0.11000
S2631       S  0.24113639  0.68652422  0.48408840    -0.32300
S2632       S  0.17418201  0.54205256  0.51045189    -0.32300
H2633       H  0.20220008  0.52436323  0.52072327     0.29000
H2634       H  0.23501456  0.68945245  0.44722828     0.29000
H2635       H  0.24835134  0.63672247  0.53863809     0.19600
H2636       H  0.16494437  0.59310540  0.45644820     0.19600
C2637       C  0.03708581  0.76706982  0.43741597    -0.06200
C2638       C  0.04454019  0.73564642  0.42089934    -0.17300
C2639       C  0.07389506  0.72952223  0.40656511     0.11000
C2640       C  0.09544546  0.75677317  0.40492371    -0.06100
C2641       C  0.08751493  0.78895131  0.41952448    -0.17400
C2642       C  0.05904700  0.79413949  0.43683694     0.11000
S2643       S  0.08444958  0.68574736  0.39380908    -0.32300
S2644       S  0.05335721  0.83519802  0.45877795    -0.32300
H2645       H  0.02042750  0.83486103  0.45878084     0.29000
H2646       H  0.05871685  0.66930340  0.40857387     0.29000
H2647       H  0.02831647  0.71456697  0.42198966     0.19600
H2648       H  0.10424559  0.80957895  0.41907558     0.19600
C2649       C  0.93670011  0.71625756  0.46445735    -0.06200
C2650       C  0.94467290  0.68641356  0.44501297    -0.17300
C2651       C  0.92468712  0.65806597  0.44365078     0.11000
C2652       C  0.89706527  0.65875139  0.46364329    -0.06100
C2653       C  0.88756824  0.69029057  0.47905021    -0.17400
C2654       C  0.90655803  0.71919332  0.47837698     0.11000
S2655       S  0.93790872  0.61953234  0.42123551    -0.32300
S2656       S  0.89167161  0.75999445  0.49428888    -0.32300
H2657       H  0.86783113  0.74656895  0.51506210     0.29000
H2658       H  0.90759393  0.60685414  0.41431202     0.29000
H2659       H  0.96739634  0.68415192  0.43287535     0.19600
H2660       H  0.86636193  0.69241910  0.49372500     0.19600
C2661       C  0.99403105  0.78728668  0.55465511    -0.06200
C2662       C  0.02528424  0.79440575  0.56501894    -0.17300
C2663       C  0.03293647  0.80945960  0.59782295     0.11000
C2664       C  0.00903895  0.81637256  0.62224496    -0.06100
C2665       C  0.97799131  0.80795555  0.61314704    -0.17400
C2666       C  0.97007041  0.79385123  0.57948690     0.11000
S2667       S  0.07307616  0.82240534  0.60676482    -0.32300
S2668       S  0.92921982  0.78714111  0.56834844    -0.32300
H2669       H  0.91699196  0.79715888  0.60133712     0.29000
H2670       H  0.08669171  0.80525743  0.57778938     0.29000
H2671       H  0.04401229  0.78931266  0.54674827     0.19600
H2672       H  0.95983923  0.81396901  0.63192562     0.42000
C2673       C  0.76905262  0.28208513  0.67617571    -0.06200
C2674       C  0.77325680  0.31562317  0.68914677    -0.17300
C2675       C  0.76389287  0.34416221  0.66800970     0.11000
C2676       C  0.74920002  0.33853384  0.63433046    -0.06100
C2677       C  0.75280033  0.30587314  0.61853638    -0.17400
C2678       C  0.76216279  0.27727195  0.63954859     0.11000
S2679       S  0.76507007  0.38674370  0.68672157    -0.32300
S2680       S  0.75909294  0.23428550  0.62148685    -0.32300
H2681       H  0.75586771  0.24447620  0.58544341     0.29000
H2682       H  0.78520888  0.37822672  0.71607506     0.29000
H2683       H  0.77943570  0.31930256  0.71715604     0.19600
H2684       H  0.74245340  0.30165241  0.59214090     0.19600
C2685       C  0.64742162  0.20878349  0.80024214    -0.06200
C2686       C  0.64055651  0.20520468  0.76342418    -0.17300
C2687       C  0.66126628  0.21727157  0.73820744     0.11000
C2688       C  0.68752126  0.23604112  0.75003033    -0.06100
C2689       C  0.69036395  0.24597267  0.78578745    -0.17400
C2690       C  0.67227019  0.23057159  0.81149239     0.11000
S2691       S  0.65574319  0.20348565  0.69248660    -0.32300
S2692       S  0.68665945  0.23327074  0.85736281    -0.32300
H2693       H  0.70461375  0.26303968  0.85348456     0.29000
H2694       H  0.67673530  0.22672115  0.67778644     0.29000
H2695       H  0.62134652  0.18908104  0.75453431     0.19600
H2696       H  0.71096087  0.26011540  0.79437618     0.19600
C2697       C  0.78808201  0.17874955  0.75140763    -0.06200
C2698       C  0.78401032  0.14587859  0.73740728    -0.17300
C2699       C  0.80605511  0.11956455  0.74480042     0.11000
C2700       C  0.83364148  0.12727272  0.76560789    -0.06100
C2701       C  0.83321270  0.15773776  0.78621540    -0.17400
C2702       C  0.81105469  0.18408580  0.77851200     0.11000
S2703       S  0.79833221  0.07803036  0.72513265    -0.32300
S2704       S  0.81521429  0.22489909  0.80103245    -0.32300
H2705       H  0.78332766  0.23499064  0.79785249     0.29000
H2706       H  0.76653824  0.08406675  0.71529743     0.29000
H2707       H  0.76456743  0.14153384  0.71870158     0.19600
H2708       H  0.85333287  0.16357521  0.80342035     0.19600
C2709       C  0.39296623  0.25052140  0.59992898    -0.06200
C2710       C  0.41039391  0.27819330  0.61314263    -0.17300
C2711       C  0.43482789  0.29084740  0.59307623     0.11000
C2712       C  0.44280421  0.27342392  0.56134390    -0.06100
C2713       C  0.41974411  0.25397865  0.54390352    -0.17400
C2714       C  0.39569494  0.24048122  0.56375261     0.11000
S2715       S  0.45813990  0.32529777  0.61123325    -0.32300
S2716       S  0.37372052  0.20488329  0.54548828    -0.32300
H2717       H  0.38940709  0.20151864  0.51311572     0.29000
H2718       H  0.47497660  0.33037945  0.57992047     0.29000
H2719       H  0.40712416  0.28743828  0.64011182     0.19600
H2720       H  0.42433434  0.24316492  0.51788571     0.19600
C2721       C  0.56141375  0.17178923  0.44852867    -0.06200
C2722       C  0.55062950  0.20571543  0.44209030    -0.17300
C2723       C  0.53117485  0.22262659  0.46602549     0.11000
C2724       C  0.52237708  0.20520752  0.49710637    -0.06100
C2725       C  0.53197629  0.17063828  0.50257517    -0.17400
C2726       C  0.55137387  0.15367374  0.47857113     0.11000
S2727       S  0.52186726  0.26755551  0.45789835    -0.32300
S2728       S  0.56430523  0.11007731  0.48914025    -0.32300
H2729       H  0.57002492  0.09950739  0.45400184     0.29000
H2730       H  0.48973069  0.26423784  0.46433101     0.29000
H2731       H  0.55841929  0.21952943  0.41893224     0.19600
H2732       H  0.52580020  0.15744140  0.52685365     0.19600
C2733       C  0.54598665  0.24643776  0.61637084    -0.06200
C2734       C  0.54048394  0.27440792  0.63921688    -0.17300
C2735       C  0.56427131  0.29773700  0.64603040     0.11000
C2736       C  0.59331902  0.29259341  0.62964828    -0.06100
C2737       C  0.60102339  0.25988727  0.61618355    -0.17400
C2738       C  0.57748073  0.23567300  0.61129670     0.11000
S2739       S  0.55543229  0.33549348  0.67185945    -0.32300
S2740       S  0.58805317  0.19357138  0.59442790    -0.32300
H2741       H  0.55949283  0.17845507  0.60319897     0.29000
H2742       H  0.58663840  0.33865005  0.68477052     0.29000
H2743       H  0.51683091  0.28120880  0.64693071     0.19600
H2744       H  0.62430671  0.25444064  0.60643738     0.19600
C2745       C  0.70998570  0.11159925  0.45069026    -0.06200
C2746       C  0.69835433  0.07828660  0.45460371    -0.17300
C2747       C  0.70297157  0.05998570  0.48627088     0.11000
C2748       C  0.71905829  0.07565786  0.51531493    -0.06100
C2749       C  0.73313767  0.10776099  0.51044853    -0.17400
C2750       C  0.72907040  0.12573001  0.47810551     0.11000
S2751       S  0.68715414  0.01714440  0.48779217    -0.32300
S2752       S  0.74731396  0.16693844  0.47383622    -0.32300
H2753       H  0.74860704  0.16578356  0.43637113     0.29000
H2754       H  0.71094242  0.00337309  0.51086178     0.29000
H2755       H  0.68387433  0.06726701  0.43341892     0.19600
H2756       H  0.74625936  0.11949675  0.53235426     0.19600
C2757       C  0.62772629  0.95125069  0.60914066    -0.06200
C2758       C  0.61989168  0.97892633  0.58636613    -0.17300
C2759       C  0.63876066  0.00792200  0.58548342     0.11000
C2760       C  0.66745192  0.00802805  0.60592549    -0.06100
C2761       C  0.67257618  0.98248136  0.63231102    -0.17400
C2762       C  0.65267838  0.95446748  0.63453022     0.11000
S2763       S  0.62492515  0.04320618  0.55733478    -0.32300
S2764       S  0.66186805  0.92211796  0.66815421    -0.32300
H2765       H  0.63103258  0.91008419  0.67017099     0.29000
H2766       H  0.63773765  0.06883869  0.57970161     0.29000
H2767       H  0.59976412  0.97724345  0.56804973     0.19600
H2768       H  0.69335279  0.98282317  0.64973381     0.19600
C2769       C  0.77884754  0.03881394  0.62227497    -0.06200
C2770       C  0.79696135  0.06834665  0.62474750    -0.17300
C2771       C  0.82696812  0.06725659  0.64070771     0.11000
C2772       C  0.83962143  0.03549349  0.65432920    -0.06100
C2773       C  0.82136148  0.00587147  0.65229720    -0.17400
C2774       C  0.79111857  0.00729945  0.63629942     0.11000
S2775       S  0.84890150  0.10677150  0.64271683    -0.32300
S2776       S  0.76988680  0.96796601  0.63269012    -0.32300
H2777       H  0.75956062  0.97343936  0.59702054     0.29000
H2778       H  0.82502476  0.12916670  0.62908083     0.29000
H2779       H  0.78750135  0.09241546  0.61381727     0.19600
H2780       H  0.83103835  0.98145893  0.66208974     0.19600
C2781       C  0.47122427  0.03707562  0.69628718    -0.06200
C2782       C  0.45460477  0.03039989  0.66415318    -0.17300
C2783       C  0.43478074  0.05546228  0.64852585     0.11000
C2784       C  0.43053680  0.08717120  0.66623485    -0.06100
C2785       C  0.44962784  0.09531317  0.69590270    -0.17400
C2786       C  0.47013414  0.07058847  0.71095386     0.11000
S2787       S  0.41384114  0.04494604  0.60747627    -0.32300
S2788       S  0.49209168  0.08273602  0.75028675    -0.32300
H2789       H  0.48561692  0.05255467  0.76929692     0.29000
H2790       H  0.40826786  0.07929820  0.59640954     0.29000
H2791       H  0.45665077  0.00535692  0.65144006     0.19600
H2792       H  0.44658887  0.11999503  0.70913656     0.19600
C2793       C  0.60465733  0.03635210  0.80030316    -0.06200
C2794       C  0.59779359  0.04785296  0.76530332    -0.17300
C2795       C  0.58190915  0.02703150  0.74081270     0.11000
C2796       C  0.56873094  0.99598238  0.75268469    -0.06100
C2797       C  0.58091590  0.98133001  0.78468086    -0.17400
C2798       C  0.60088868  0.00063688  0.80748960     0.11000
S2799       S  0.57540191  0.04367727  0.69605441    -0.32300
S2800       S  0.61708221  0.98020241  0.84750296    -0.32300
H2801       H  0.63814299  0.00663142  0.85619359     0.29000
H2802       H  0.56757171  0.01167405  0.68086250     0.29000
H2803       H  0.60199298  0.07423100  0.75759367     0.19600
H2804       H  0.57288698  0.95644455  0.79339937     0.19600
C2805       C  0.48644892  0.91438770  0.70686826    -0.06200
C2806       C  0.46245121  0.91458720  0.67969787    -0.17300
C2807       C  0.46547172  0.89355035  0.64960237     0.11000
C2808       C  0.49155642  0.87095761  0.64838203    -0.06100
C2809       C  0.50810559  0.86278802  0.68059736    -0.17400
C2810       C  0.50600951  0.88476560  0.70999479     0.11000
S2811       S  0.43928646  0.90079424  0.61150427    -0.32300
S2812       S  0.53128647  0.87610441  0.74852619    -0.32300
H2813       H  0.51318217  0.89608257  0.77198190     0.29000
H2814       H  0.44794113  0.87041168  0.59344611     0.29000
H2815       H  0.44461828  0.93494393  0.67850357     0.19600
H2816       H  0.52672850  0.84329623  0.68081732     0.19600
C2817       C  0.40077704  0.48829119  0.13969472    -0.06200
C2818       C  0.41943225  0.45877230  0.14639945    -0.17300
C2819       C  0.43772738  0.45594845  0.17808330     0.11000
C2820       C  0.43637570  0.48306413  0.20343879    -0.06100
C2821       C  0.41355704  0.50927559  0.19903762    -0.17400
C2822       C  0.39691573  0.51331903  0.16682973     0.11000
S2823       S  0.46390351  0.41905951  0.18406723    -0.32300
S2824       S  0.37463581  0.55312605  0.15940609    -0.32300
H2825       H  0.37649095  0.56566424  0.19464910     0.29000
H2826       H  0.46246678  0.40770170  0.14838473     0.29000
H2827       H  0.42096515  0.43907799  0.12597631     0.19600
H2828       H  0.41206440  0.52940921  0.21901995     0.19600
C2829       C  0.57638860  0.41195409  0.22147311    -0.06200
C2830       C  0.58721371  0.43972712  0.24179850    -0.17300
C2831       C  0.56679395  0.45736221  0.26425461     0.11000
C2832       C  0.53479088  0.44830751  0.26367306    -0.06100
C2833       C  0.52688280  0.41542125  0.25130369    -0.17400
C2834       C  0.54659296  0.39811936  0.22814395     0.11000
S2835       S  0.58125375  0.49191155  0.29207862    -0.32300
S2836       S  0.53075883  0.36104354  0.20519482    -0.32300
H2837       H  0.54256812  0.36956746  0.17171572     0.29000
H2838       H  0.61295757  0.48863191  0.28286665     0.29000
H2839       H  0.61114344  0.44808229  0.23915418     0.19600
H2840       H  0.50313183  0.40638516  0.25377366     0.19600
C2841       C  0.41312008  0.61521331  0.01453107    -0.06200
C2842       C  0.40909558  0.64332284  0.03797511    -0.17300
C2843       C  0.43383551  0.66582563  0.04568988     0.11000
C2844       C  0.46281769  0.65973522  0.02947360    -0.06100
C2845       C  0.46405794  0.63616666  0.00067928    -0.17400
C2846       C  0.43991668  0.61322762  0.99374129     0.11000
S2847       S  0.42891851  0.69936494  0.07856782    -0.32300
S2848       S  0.44656432  0.57917387  0.96180408    -0.32300
H2849       H  0.41488057  0.57051103  0.95639740     0.29000
H2850       H  0.39591049  0.69821431  0.07903673     0.29000
H2851       H  0.38789925  0.64529877  0.05317976     0.19600
H2852       H  0.48547981  0.63279771  0.98602870     0.19600
C2853       C  0.53808781  0.74153952  0.08772521    -0.06200
C2854       C  0.55331416  0.74386259  0.12151691    -0.17300
C2855       C  0.57269961  0.77170351  0.13038636     0.11000
C2856       C  0.57853647  0.79674410  0.10393498    -0.06100
C2857       C  0.56334915  0.79396475  0.07020944    -0.17400
C2858       C  0.54222538  0.76788015  0.06254592     0.11000
S2859       S  0.58992985  0.77248363  0.17511593    -0.32300
S2860       S  0.52302552  0.76807520  0.01898819    -0.32300
H2861       H  0.49360504  0.75915096  0.03187246     0.29000
H2862       H  0.59916825  0.80703881  0.17529395     0.29000
H2863       H  0.55105022  0.72309521  0.14062394     0.19600
H2864       H  0.56709931  0.81321265  0.04993595     0.19600
C2865       C  0.57293251  0.63745891  0.03031427    -0.06200
C2866       C  0.56340319  0.61266195  0.00482472    -0.17300
C2867       C  0.57940787  0.60827885  0.97331422     0.11000
C2868       C  0.60631733  0.62769895  0.96802906    -0.06100
C2869       C  0.61928859  0.64702635  0.99624952    -0.17400
C2870       C  0.60312130  0.65164826  0.02787091     0.11000
S2871       S  0.56275350  0.58017495  0.93973013    -0.32300
S2872       S  0.62071581  0.67681975  0.06359769    -0.32300
H2873       H  0.64891916  0.68393555  0.04670025     0.29000
H2874       H  0.59089159  0.57281183  0.92232312     0.29000
H2875       H  0.54133982  0.59954658  0.00726416     0.19600
H2876       H  0.64118157  0.66010010  0.99253281     0.19600
C2877       C  0.70355705  0.47815860  0.02682063    -0.06200
C2878       C  0.67936837  0.46236848  0.00708256    -0.17300
C2879       C  0.65341543  0.44941007  0.02443707     0.11000
C2880       C  0.65238159  0.45140531  0.06210642    -0.06100
C2881       C  0.67317456  0.47326050  0.08039117    -0.17400
C2882       C  0.69922111  0.48620421  0.06313681     0.11000
S2883       S  0.62521302  0.42507361  0.99857378    -0.32300
S2884       S  0.72851748  0.50983839  0.08835084    -0.32300
H2885       H  0.71394269  0.50842426  0.12152605     0.29000
H2886       H  0.60213941  0.42583678  0.02472137     0.29000
H2887       H  0.68216218  0.45703444  0.97892353     0.19600
H2888       H  0.67191702  0.47548286  0.10914845     0.19600
C2889       C  0.85366716  0.47250682  0.09855254    -0.06200
C2890       C  0.83154089  0.44641203  0.10188851    -0.17300
C2891       C  0.81238133  0.43727073  0.07216528     0.11000
C2892       C  0.81622401  0.45427705  0.03918666    -0.06100
C2893       C  0.84389234  0.47232122  0.03444974    -0.17400
C2894       C  0.86058107  0.48463451  0.06402439     0.11000
S2895       S  0.78202906  0.40598453  0.07693265    -0.32300
S2896       S  0.88491149  0.52160743  0.05748567    -0.32300
H2897       H  0.87286654  0.53130826  0.02344740     0.29000
H2898       H  0.79332397  0.39326138  0.11003058     0.29000
H2899       H  0.82682680  0.43638483  0.12815035     0.19600
H2900       H  0.84883819  0.48277880  0.00844756     0.19600
C2901       C  0.77677111  0.53423737  0.94893765    -0.06200
C2902       C  0.77753153  0.56718283  0.96439329    -0.17300
C2903       C  0.76820864  0.59617815  0.94420873     0.11000
C2904       C  0.75588852  0.59121411  0.90929159    -0.06100
C2905       C  0.76208539  0.55962871  0.89204343    -0.17400
C2906       C  0.77351095  0.53120406  0.91168671     0.11000
S2907       S  0.76647397  0.63760656  0.96589876    -0.32300
S2908       S  0.78109956  0.49129351  0.88876914    -0.32300
H2909       H  0.80071852  0.47680399  0.91597659     0.29000
H2910       H  0.76297979  0.65681945  0.93403038     0.29000
H2911       H  0.78184934  0.56987561  0.99293352     0.19600
H2912       H  0.75438706  0.55573513  0.86452681     0.19600
C2913       C  0.54087486  0.62293479  0.27740333    -0.06200
C2914       C  0.50802939  0.62394244  0.27432227    -0.17300
C2915       C  0.49244577  0.59661140  0.25776234     0.11000
C2916       C  0.51061832  0.56946185  0.24331548    -0.06100
C2917       C  0.54259042  0.57448151  0.23747553    -0.17400
C2918       C  0.55791892  0.60177433  0.25404215     0.11000
S2919       S  0.45035269  0.59523757  0.26058659    -0.32300
S2920       S  0.60001033  0.60379230  0.25133784    -0.32300
H2921       H  0.60151392  0.63889183  0.26067659     0.29000
H2922       H  0.45081654  0.56399570  0.27979598     0.29000
H2923       H  0.49472785  0.64296862  0.28907224     0.19600
H2924       H  0.55638708  0.55473907  0.22423362     0.19600
C2925       C  0.69255721  0.75068604  0.25629268    -0.06200
C2926       C  0.69017884  0.77047586  0.28744272    -0.17300
C2927       C  0.66625611  0.76445458  0.31127531     0.11000
C2928       C  0.64508487  0.73753082  0.30391428    -0.06100
C2929       C  0.64439877  0.72241745  0.26983164    -0.17400
C2930       C  0.66762276  0.72929431  0.24562254     0.11000
S2931       S  0.66678019  0.78847064  0.35251150    -0.32300
S2932       S  0.66562527  0.70967186  0.20181656    -0.32300
H2933       H  0.63410436  0.69965240  0.20314608     0.29000
H2934       H  0.63918655  0.77495296  0.36592714     0.29000
H2935       H  0.70836748  0.78856023  0.29467871     0.19600
H2936       H  0.62776571  0.70242140  0.26344792     0.19600
C2937       C  0.76883268  0.68767549  0.18478033    -0.06200
C2938       C  0.78489561  0.69047929  0.15266738    -0.17300
C2939       C  0.80101043  0.66222199  0.13873721     0.11000
C2940       C  0.80248696  0.63125799  0.15831826    -0.06100
C2941       C  0.78140682  0.62632512  0.18556835    -0.17400
C2942       C  0.76440866  0.65434671  0.19935236     0.11000
S2943       S  0.82245262  0.66787213  0.09843823    -0.32300
S2944       S  0.74004263  0.64687776  0.23716717    -0.32300
H2945       H  0.73593526  0.61146159  0.23067956     0.29000
H2946       H  0.82597230  0.63240776  0.09106903     0.29000
H2947       H  0.78613520  0.71507961  0.13911185     0.19600
H2948       H  0.78070915  0.60131554  0.19813105     0.19600
C2949       C  0.76822085  0.81348938  0.18952348    -0.06200
C2950       C  0.74914229  0.84146346  0.19948203    -0.17300
C2951       C  0.72881900  0.85662098  0.17389976     0.11000
C2952       C  0.73284850  0.84898583  0.13728835    -0.06100
C2953       C  0.75912615  0.82929957  0.12734785    -0.17400
C2954       C  0.77784389  0.81232585  0.15376773     0.11000
S2955       S  0.69483614  0.88038793  0.18916453    -0.32300
S2956       S  0.81206818  0.78720768  0.14183521    -0.32300
H2957       H  0.81167606  0.79732800  0.10571787     0.29000
H2958       H  0.69245509  0.86218640  0.22149049     0.29000
H2959       H  0.74435271  0.84528259  0.22748799     0.19600
H2960       H  0.76358345  0.82527756  0.09940468     0.19600
C2961       C  0.31415479  0.48582325  0.86894459    -0.06200
C2962       C  0.30772359  0.50684998  0.83878499    -0.17300
C2963       C  0.32862616  0.53246898  0.82969013     0.11000
C2964       C  0.35574249  0.53688671  0.85153493    -0.06100
C2965       C  0.36578744  0.51017611  0.87468727    -0.17400
C2966       C  0.34541126  0.48368589  0.88285587     0.11000
S2967       S  0.31726907  0.56233399  0.79447768    -0.32300
S2968       S  0.35865449  0.45013712  0.91372390    -0.32300
H2969       H  0.38818253  0.46391721  0.92254815     0.29000
H2970       H  0.34788772  0.57398780  0.78931169     0.29000
H2971       H  0.28462182  0.50688893  0.82578006     0.19600
H2972       H  0.38794845  0.51228863  0.88941641     0.19600
C2973       C  0.14687640  0.51757822  0.89225411    -0.06200
C2974       C  0.15626090  0.52246860  0.92811146    -0.17300
C2975       C  0.18843570  0.52360428  0.93736783     0.11000
C2976       C  0.21028085  0.52003202  0.90988303    -0.06100
C2977       C  0.19985273  0.52581255  0.87435413    -0.17400
C2978       C  0.16785610  0.52535732  0.86535271     0.11000
S2979       S  0.20139531  0.52305776  0.98378616    -0.32300
S2980       S  0.15613283  0.52159110  0.81871111    -0.32300
H2981       H  0.12407856  0.52873722  0.82388103     0.29000
H2982       H  0.17265958  0.51287058  0.99754154     0.29000
H2983       H  0.13945962  0.51835088  0.94871906     0.19600
H2984       H  0.21632968  0.52459457  0.85290345     0.19600
C2985       C  0.27603222  0.43572538  0.97872335    -0.06200
C2986       C  0.30592735  0.43984034  0.99436615    -0.17300
C2987       C  0.31623882  0.42017146  0.02368315     0.11000
C2988       C  0.29614883  0.39538973  0.03808517    -0.06100
C2989       C  0.26554971  0.39219091  0.02357513    -0.17400
C2990       C  0.25513453  0.41247463  0.99406410     0.11000
S2991       S  0.35634954  0.42487963  0.04023164    -0.32300
S2992       S  0.21623085  0.40685475  0.97481229    -0.32300
H2993       H  0.20697390  0.38119560  0.99868826     0.29000
H2994       H  0.36280171  0.45525869  0.02145283     0.29000
H2995       H  0.32166226  0.45810537  0.98286497     0.19600
H2996       H  0.25049536  0.37282858  0.03432010     0.19600
C2997       C  0.59252422  0.49975645  0.72266789    -0.06200
C2998       C  0.58881062  0.47416606  0.69627086    -0.17300
C2999       C  0.60539208  0.44278785  0.69835141     0.11000
C3000       C  0.62595128  0.43594656  0.72739228    -0.06100
C3001       C  0.63115574  0.46191242  0.75275864    -0.17400
C3002       C  0.61523507  0.49372796  0.75072718     0.11000
S3003       S  0.59585053  0.41042292  0.66639194    -0.32300
S3004       S  0.62390095  0.52450033  0.78566412    -0.32300
H3005       H  0.63446245  0.50051008  0.81184215     0.29000
H3006       H  0.62504983  0.39277761  0.66888601     0.29000
H3007       H  0.57133634  0.47745451  0.67488552     0.19600
H3008       H  0.64628166  0.45626787  0.77579278     0.19600
C3009       C  0.53759777  0.59104796  0.78855360    -0.06200
C3010       C  0.51969102  0.62154781  0.78486309    -0.17300
C3011       C  0.49874727  0.63088723  0.81107389     0.11000
C3012       C  0.50090883  0.61411290  0.84468550    -0.06100
C3013       C  0.52372426  0.58835523  0.85094460    -0.17400
C3014       C  0.54075831  0.57499559  0.82258743     0.11000
S3015       S  0.46432902  0.65624884  0.79747269    -0.32300
S3016       S  0.55905169  0.53306902  0.82898402    -0.32300
H3017       H  0.56301282  0.53531332  0.86635894     0.29000
H3018       H  0.47398406  0.66563234  0.76327285     0.29000
H3019       H  0.51742403  0.63368934  0.75879337     0.19600
H3020       H  0.52376455  0.57454207  0.87605670     0.19600
C3021       C  0.43306230  0.52333547  0.64515218    -0.06200
C3022       C  0.43371468  0.55441949  0.66413397    -0.17300
C3023       C  0.46120230  0.56474996  0.68280514     0.11000
C3024       C  0.48974195  0.54510672  0.67948891    -0.06100
C3025       C  0.48908985  0.51541731  0.65801790    -0.17400
C3026       C  0.46098988  0.50309783  0.64336419     0.11000
S3027       S  0.45796994  0.60149468  0.71228114    -0.32300
S3028       S  0.46026876  0.45858491  0.62903160    -0.32300
H3029       H  0.49293637  0.45324590  0.62680788     0.29000
H3030       H  0.42503240  0.60191611  0.71432503     0.29000
H3031       H  0.41202289  0.56923928  0.66642807     0.19600
H3032       H  0.51005918  0.49941149  0.65592140     0.19600
C3033       C  0.51754683  0.28081681  0.86650624    -0.06200
C3034       C  0.52272327  0.31457095  0.87867007    -0.17300
C3035       C  0.54680838  0.33378495  0.86504071     0.11000
C3036       C  0.56622615  0.31848171  0.83943083    -0.06100
C3037       C  0.55742402  0.28771501  0.82274355    -0.17400
C3038       C  0.53232877  0.26924391  0.83528558     0.11000
S3039       S  0.55413436  0.37556027  0.88447453    -0.32300
S3040       S  0.52112631  0.23074853  0.81143670    -0.32300
H3041       H  0.48986821  0.23171713  0.82270499     0.29000
H3042       H  0.56925615  0.38929974  0.85499026     0.29000
H3043       H  0.51023616  0.32485923  0.90120310     0.19600
H3044       H  0.57110812  0.27726045  0.80116991     0.19600
C3045       C  0.46702187  0.26122502  0.97832848    -0.06200
C3046       C  0.43958127  0.24658022  0.99044622    -0.17300
C3047       C  0.42105250  0.26407109  0.01518014     0.11000
C3048       C  0.42998099  0.29728523  0.02722939    -0.06100
C3049       C  0.45686465  0.31213061  0.01380742    -0.17400
C3050       C  0.47660009  0.29351047  0.99163489     0.11000
S3051       S  0.38538758  0.24436672  0.02926247    -0.32300
S3052       S  0.51473756  0.31041974  0.98198618    -0.32300
H3053       H  0.51314415  0.33935973  0.00457797     0.29000
H3054       H  0.39156799  0.21132821  0.01524147     0.29000
H3055       H  0.43206937  0.22216572  0.97941727     0.19600
H3056       H  0.46308709  0.33793907  0.02206757     0.19600
C3057       C  0.51017370  0.16277472  0.90809375    -0.06200
C3058       C  0.52740246  0.15503158  0.87745530    -0.17300
C3059       C  0.51760828  0.12919316  0.85412149     0.11000
C3060       C  0.49199133  0.10905039  0.86318304    -0.06100
C3061       C  0.48159106  0.11032769  0.89854554    -0.17400
C3062       C  0.49054254  0.13723497  0.92141112     0.11000
S3063       S  0.53507283  0.12686108  0.81122413    -0.32300
S3064       S  0.47421842  0.14033288  0.96528826    -0.32300
H3065       H  0.45910843  0.10840413  0.96448210     0.29000
H3066       H  0.53357146  0.09066324  0.81010220     0.29000
H3067       H  0.54503569  0.17260927  0.86854075     0.19600
H3068       H  0.46306632  0.09347939  0.90639105     0.19600
C3069       C  0.32445001  0.23921745  0.79987716    -0.06200
C3070       C  0.34469466  0.23287424  0.77146097    -0.17300
C3071       C  0.35877461  0.20053252  0.76670849     0.11000
C3072       C  0.35200723  0.17390236  0.79036588    -0.06100
C3073       C  0.32964079  0.17907463  0.81666856    -0.17400
C3074       C  0.31594548  0.21156423  0.82196397     0.11000
S3075       S  0.38628349  0.19366975  0.73155691    -0.32300
S3076       S  0.28971281  0.21616769  0.85863312    -0.32300
H3077       H  0.30355890  0.24637647  0.87197048     0.29000
H3078       H  0.37924670  0.22457530  0.71294596     0.29000
H3079       H  0.35015511  0.25353158  0.75339704     0.19600
H3080       H  0.32421167  0.15808003  0.83447303     0.19600
C3081       C  0.33837149  0.36067098  0.77530685    -0.06200
C3082       C  0.32266130  0.39304720  0.77262192    -0.17300
C3083       C  0.32251302  0.41205155  0.74106537     0.11000
C3084       C  0.33967301  0.39920456  0.71231359    -0.06100
C3085       C  0.35973474  0.37038165  0.71712650    -0.17400
C3086       C  0.35985040  0.35127411  0.74871060     0.11000
S3087       S  0.29925182  0.45158600  0.73890111    -0.32300
S3088       S  0.38774877  0.31572084  0.75428182    -0.32300
H3089       H  0.39391827  0.31149980  0.71779744     0.29000
H3090       H  0.29409142  0.45250861  0.70165896     0.29000
H3091       H  0.30756210  0.40190371  0.79367399     0.19600
H3092       H  0.37517928  0.36284850  0.69588114     0.19600
C3093       C  0.24238531  0.32616940  0.82180660    -0.06200
C3094       C  0.22612584  0.31668382  0.85211380    -0.17300
C3095       C  0.19639764  0.33128600  0.85820585     0.11000
C3096       C  0.18378008  0.35618799  0.83400871    -0.06100
C3097       C  0.19955870  0.36449691  0.80321501    -0.17400
C3098       C  0.22807483  0.34870068  0.79608396     0.11000
S3099       S  0.17514512  0.31924957  0.89715320    -0.32300
S3100       S  0.24471293  0.35815155  0.75342045    -0.32300
H3101       H  0.25966334  0.32567663  0.74968836     0.29000
H3102       H  0.19663765  0.29348024  0.90939639     0.29000
H3103       H  0.23718874  0.29911291  0.87143393     0.19600
H3104       H  0.18926174  0.38308831  0.78436243     0.19600
C3105       C  0.42648110  0.78476107  0.46015599    -0.06200
C3106       C  0.39520515  0.77428047  0.46030220    -0.17300
C3107       C  0.37881545  0.77454853  0.49218354     0.11000
C3108       C  0.39357836  0.78770851  0.52368411    -0.06100
C3109       C  0.42572626  0.79439772  0.52380589    -0.17400
C3110       C  0.44262639  0.79126636  0.49297195     0.11000
S3111       S  0.33893991  0.75967918  0.49060162    -0.32300
S3112       S  0.48466275  0.79635783  0.49758985    -0.32300
H3113       H  0.49196880  0.77380539  0.46942479     0.29000
H3114       H  0.33733066  0.75324796  0.52746930     0.29000
H3115       H  0.38317860  0.76734246  0.43547546     0.19600
H3116       H  0.43765756  0.80352997  0.54781687     0.19600
C3117       C  0.22300944  0.94404007  0.51808146    -0.06200
C3118       C  0.23952804  0.95249002  0.54964513    -0.17300
C3119       C  0.25991605  0.92870742  0.56638849     0.11000
C3120       C  0.26072236  0.89401303  0.55438863    -0.06100
C3121       C  0.24091663  0.88438934  0.52557543    -0.17400
C3122       C  0.22249872  0.90939330  0.50678137     0.11000
S3123       S  0.28691084  0.94571477  0.59982245    -0.32300
S3124       S  0.20042840  0.89783957  0.46683923    -0.32300
H3125       H  0.20925706  0.86264657  0.46708362     0.29000
H3126       H  0.31288187  0.92563148  0.58918617     0.29000
H3127       H  0.24069758  0.97933696  0.55773822     0.19600
H3128       H  0.24106977  0.85773494  0.51692771     0.19600
C3129       C  0.28266679  0.02363611  0.45315258    -0.06200
C3130       C  0.28771953  0.03236103  0.41775909    -0.17300
C3131       C  0.31587485  0.04661149  0.40835906     0.11000
C3132       C  0.33941293  0.05183582  0.43531889    -0.06100
C3133       C  0.33614762  0.03831207  0.46953273    -0.17400
C3134       C  0.30732066  0.02539047  0.47927830     0.11000
S3135       S  0.31969663  0.06120392  0.36276427    -0.32300
S3136       S  0.30102857  0.01642855  0.52594348    -0.32300
H3137       H  0.33160881  0.02338142  0.53885893     0.29000
H3138       H  0.29093049  0.04909028  0.34885041     0.29000
H3139       H  0.26902651  0.02928915  0.39782890     0.19600
H3140       H  0.35439030  0.04276127  0.48970316     0.19600
C3141       C  0.16748037  0.02940135  0.43818110    -0.06200
C3142       C  0.13923469  0.01991774  0.45306451    -0.17300
C3143       C  0.11486349  0.00811863  0.43086775     0.11000
C3144       C  0.11684362  0.01193102  0.39336039    -0.06100
C3145       C  0.14020808  0.03302780  0.38017216    -0.17400
C3146       C  0.16682427  0.04027078  0.40183348     0.11000
S3147       S  0.08745933  0.97918095  0.45013337    -0.32300
S3148       S  0.20133704  0.05544247  0.38029010    -0.32300
H3149       H  0.18653124  0.06461812  0.34741497     0.29000
H3150       H  0.09691299  0.98289660  0.48623162     0.29000
H3151       H  0.13907204  0.01427069  0.48138821     0.19600
H3152       H  0.14105699  0.03675354  0.35154075     0.19600
C3153       C  0.56445713  0.87536110  0.43012530    -0.06200
C3154       C  0.53526582  0.88706614  0.44182257    -0.17300
C3155       C  0.50761040  0.87203804  0.42907807     0.11000
C3156       C  0.50946457  0.84295746  0.40626261    -0.06100
C3157       C  0.53886704  0.83080680  0.39537793    -0.17400
C3158       C  0.56624425  0.84726121  0.40635518     0.11000
S3159       S  0.47027491  0.89199353  0.43985968    -0.32300
S3160       S  0.60299577  0.83406208  0.38744344    -0.32300
H3161       H  0.58990936  0.81581485  0.35829590     0.29000
H3162       H  0.48227290  0.91974307  0.45984916     0.29000
H3163       H  0.53419792  0.90996113  0.45834892     0.19600
H3164       H  0.54054704  0.80821750  0.37847510     0.19600
C3165       C  0.57506491  0.00870655  0.26791397    -0.06200
C3166       C  0.57169389  0.03487634  0.29420456    -0.17300
C3167       C  0.58951841  0.03410198  0.32594012     0.11000
C3168       C  0.61390861  0.00979904  0.33006115    -0.06100
C3169       C  0.62155732  0.98818127  0.30126843    -0.17400
C3170       C  0.60168772  0.98631266  0.27070463     0.11000
S3171       S  0.57494452  0.05717095  0.36394541    -0.32300
S3172       S  0.60891651  0.95258292  0.23854540    -0.32300
H3173       H  0.63979634  0.94418917  0.25048097     0.29000
H3174       H  0.60457488  0.06131509  0.38091358     0.29000
H3175       H  0.55230278  0.05339513  0.29279465     0.19600
H3176       H  0.64007606  0.96887845  0.30527078     0.19600
C3177       C  0.50817391  0.93830631  0.18333749    -0.06200
C3178       C  0.52289059  0.90638262  0.19156969    -0.17300
C3179       C  0.51141461  0.87550592  0.17681428     0.11000
C3180       C  0.48371990  0.87651401  0.15458170    -0.06100
C3181       C  0.46830649  0.90843175  0.14881535    -0.17400
C3182       C  0.48191009  0.93902943  0.15933825     0.11000
S3183       S  0.53292131  0.83635457  0.18854054    -0.32300
S3184       S  0.46520673  0.97808247  0.13950067    -0.32300
H3185       H  0.49375660  0.99579025  0.14019967     0.29000
H3186       H  0.51813848  0.81421525  0.16395992     0.29000
H3187       H  0.54285900  0.90533231  0.21022126     0.19600
H3188       H  0.44593317  0.91002898  0.13438550     0.19600
C3189       C  0.46713031  0.03838955  0.24554474    -0.06200
C3190       C  0.43963691  0.02135537  0.25475229    -0.17300
C3191       C  0.41801343  0.03722459  0.27723643     0.11000
C3192       C  0.42535664  0.06946060  0.29236500    -0.06100
C3193       C  0.45230507  0.08660213  0.28189430    -0.17400
C3194       C  0.47190004  0.07249122  0.25692283     0.11000
S3195       S  0.38227468  0.01505598  0.28623438    -0.32300
S3196       S  0.50319966  0.09895348  0.24148198    -0.32300
H3197       H  0.50620742  0.08178763  0.20859791     0.29000
H3198       H  0.36387112  0.04492417  0.29224186     0.29000
H3199       H  0.43569022  0.99516776  0.24580851     0.19600
H3200       H  0.45771117  0.11184860  0.29265217     0.19600
C3201       C  0.44822699  0.67306256  0.35210125    -0.06200
C3202       C  0.43277724  0.69578144  0.32782721    -0.17300
C3203       C  0.44015844  0.73063610  0.32764751     0.11000
C3204       C  0.46495820  0.74196324  0.35000585    -0.06100
C3205       C  0.48501102  0.71770466  0.36731967    -0.17400
C3206       C  0.47506846  0.68394940  0.37174008     0.11000
S3207       S  0.41349109  0.76036404  0.30445078    -0.32300
S3208       S  0.49196831  0.65886571  0.40862972    -0.32300
H3209       H  0.52014880  0.67707284  0.41194592     0.29000
H3210       H  0.43306206  0.78908621  0.30754602     0.29000
H3211       H  0.41215563  0.68739187  0.31278176     0.19600
H3212       H  0.50386963  0.72694810  0.38468020     0.19600
C3213       C  0.18332242  0.85672637  0.33750200    -0.06200
C3214       C  0.20222769  0.86313096  0.30855999    -0.17300
C3215       C  0.22939494  0.84324014  0.30331868     0.11000
C3216       C  0.23726980  0.81610701  0.32780101    -0.06100
C3217       C  0.21968130  0.81265601  0.35877349    -0.17400
C3218       C  0.19277053  0.83250861  0.36380791     0.11000
S3219       S  0.25167495  0.85208337  0.26411365    -0.32300
S3220       S  0.17052920  0.82373678  0.40300394    -0.32300
H3221       H  0.15330492  0.85495129  0.40405077     0.29000
H3222       H  0.23759723  0.88439671  0.25586827     0.29000
H3223       H  0.19449520  0.88230873  0.28892618     0.19600
H3224       H  0.22592744  0.79313685  0.37863548     0.19600
C3225       C  0.28080468  0.70076958  0.35380437    -0.06200
C3226       C  0.28446551  0.67014424  0.33471274    -0.17300
C3227       C  0.29603885  0.64040233  0.35163613     0.11000
C3228       C  0.30203185  0.64088046  0.38910215    -0.06100
C3229       C  0.29239019  0.66970990  0.40893138    -0.17400
C3230       C  0.28277722  0.70023512  0.39147994     0.11000
S3231       S  0.30820296  0.60450724  0.32400248    -0.32300
S3232       S  0.27878777  0.73874164  0.41797275    -0.32300
H3233       H  0.30193025  0.75638578  0.39959652     0.29000
H3234       H  0.29897818  0.61865915  0.29059930     0.29000
H3235       H  0.28161692  0.67067726  0.30587692     0.19600
H3236       H  0.29697013  0.67008747  0.43754706     0.19600
C3237       C  0.32316508  0.76844901  0.25702380    -0.06200
C3238       C  0.33460227  0.80141328  0.25042247    -0.17300
C3239       C  0.35304914  0.80768539  0.22124635     0.11000
C3240       C  0.36036190  0.78023311  0.19782313    -0.06100
C3241       C  0.35168010  0.74664966  0.20632585    -0.17400
C3242       C  0.33238660  0.74045774  0.23512718     0.11000
S3243       S  0.36719604  0.85111000  0.21643358    -0.32300
S3244       S  0.31768611  0.69746628  0.24105133    -0.32300
H3245       H  0.33808204  0.68055304  0.21758543     0.29000
H3246       H  0.36575512  0.85192250  0.17888110     0.29000
H3247       H  0.32869584  0.82274410  0.26786921     0.19600
H3248       H  0.35879245  0.72556370  0.18921244     0.19600
C3249       C  0.95253626  0.91994050  0.77224715    -0.06200
C3250       C  0.92103639  0.93197602  0.77168426    -0.17300
C3251       C  0.89994412  0.92365706  0.74420022     0.11000
C3252       C  0.91041330  0.90349423  0.71550229    -0.06100
C3253       C  0.94100017  0.88906135  0.71723824    -0.17400
C3254       C  0.96187043  0.89644626  0.74590044     0.11000
S3255       S  0.86031387  0.94019926  0.74748249    -0.32300
S3256       S  0.99923097  0.87429793  0.74986998    -0.32300
H3257       H  0.99051838  0.84659955  0.72770512     0.29000
H3258       H  0.85674928  0.94936099  0.71127268     0.29000
H3259       H  0.91268005  0.94934897  0.79206697     0.19600
H3260       H  0.94853575  0.87218023  0.69602072     0.19600
C3261       C  0.05488142  0.96639474  0.81587003    -0.06200
C3262       C  0.07316694  0.93794944  0.82714366    -0.17300
C3263       C  0.10104214  0.94260607  0.84706269     0.11000
C3264       C  0.11120152  0.97657457  0.85474369    -0.06100
C3265       C  0.09567918  0.00455246  0.83792748    -0.17400
C3266       C  0.06761224  0.99969452  0.81827586     0.11000
S3267       S  0.12101452  0.90521426  0.86653134    -0.32300
S3268       S  0.04722618  0.03711001  0.79985850    -0.32300
H3269       H  0.02516055  0.01897756  0.77885153     0.29000
H3270       H  0.09985030  0.88042835  0.85368518     0.29000
H3271       H  0.06341780  0.91242589  0.82477670     0.19600
H3272       H  0.10390722  0.03034444  0.84266109     0.19600
C3273       C  0.95589786  0.99281516  0.87348559    -0.06200
C3274       C  0.92328267  0.99187738  0.86662400    -0.17300
C3275       C  0.90383704  0.01967212  0.87449567     0.11000
C3276       C  0.91638675  0.04732349  0.89446628    -0.06100
C3277       C  0.94789251  0.04596936  0.90647373    -0.17400
C3278       C  0.96802608  0.01909306  0.89575948     0.11000
S3279       S  0.86467927  0.02120688  0.85386331    -0.32300
S3280       S  0.00873965  0.01931678  0.91022537    -0.32300
H3281       H  0.00457451  0.04284942  0.93814975     0.29000
H3282       H  0.86443473  0.98768225  0.83950577     0.29000
H3283       H  0.91318660  0.97108239  0.85129150     0.19600
H3284       H  0.95707475  0.06716658  0.92218795     0.19600
C3285       C  0.98449795  0.72966760  0.99690073    -0.06200
C3286       C  0.95329562  0.72489767  0.00633984    -0.17300
C3287       C  0.93260848  0.70695638  0.98378008     0.11000
C3288       C  0.94377985  0.69189475  0.95215677    -0.06100
C3289       C  0.97497701  0.69657764  0.94287306    -0.17400
C3290       C  0.99553390  0.71484391  0.96504497     0.11000
S3291       S  0.89197453  0.70538477  0.99572730    -0.32300
S3292       S  0.03530211  0.71949711  0.95057756    -0.32300
H3293       H  0.04871303  0.72509600  0.98484545     0.29000
H3294       H  0.87967897  0.70405107  0.96045790     0.29000
H3295       H  0.94430388  0.73767688  0.02978679     0.19600
H3296       H  0.98337468  0.68581346  0.91815003     0.19600
C3297       C  0.01684832  0.80139377  0.10037293    -0.06200
C3298       C  0.98679835  0.79815666  0.11342015    -0.17300
C3299       C  0.97232193  0.82638242  0.12952520     0.11000
C3300       C  0.99058341  0.85477906  0.14117927    -0.06100
C3301       C  0.02265033  0.85462405  0.13460272    -0.17400
C3302       C  0.03584911  0.82879730  0.11331142     0.11000
S3303       S  0.92994300  0.82856859  0.12676520    -0.32300
S3304       S  0.07506621  0.83586944  0.09817010    -0.32300
H3305       H  0.07845877  0.80445305  0.07993234     0.29000
H3306       H  0.92505547  0.79290280  0.12347144     0.29000
H3307       H  0.97220988  0.77755140  0.10330176     0.19600
H3308       H  0.03680268  0.87602636  0.14366203     0.19600
C3309       C  0.02843334  0.84266118  0.98297620    -0.06200
C3310       C  0.04931076  0.83355018  0.95665972    -0.17300
C3311       C  0.07560470  0.85338220  0.95167307     0.11000
C3312       C  0.08048254  0.88286058  0.97362507    -0.06100
C3313       C  0.05660438  0.89449928  0.99577413    -0.17400
C3314       C  0.02941744  0.87568905  0.99836408     0.11000
S3315       S  0.10347314  0.83831427  0.91954515    -0.32300
S3316       S  0.99817416  0.89225526  0.02516941    -0.32300
H3317       H  0.97582903  0.86834021  0.01299017     0.29000
H3318       H  0.08383322  0.81458503  0.90190199     0.29000
H3319       H  0.04771538  0.80845655  0.94405250     0.19600
H3320       H  0.05932202  0.91789769  0.01130668     0.19600
C3321       C  0.75447511  0.99157025  0.92147675    -0.06200
C3322       C  0.74021882  0.02028361  0.93753245    -0.17300
C3323       C  0.74489079  0.05338045  0.92417371     0.11000
C3324       C  0.76345512  0.05694649  0.89393338    -0.06100
C3325       C  0.77088304  0.02765980  0.87343752    -0.17400
C3326       C  0.76724400  0.99470275  0.88753661     0.11000
S3327       S  0.73308127  0.09061445  0.94994107    -0.32300
S3328       S  0.78320875  0.95816317  0.86388731    -0.32300
H3329       H  0.76590110  0.93322129  0.88169982     0.29000
H3330       H  0.72142479  0.07254769  0.97914004     0.29000
H3331       H  0.72965363  0.01726962  0.96328173     0.19600
H3332       H  0.78455742  0.03045798  0.84968496     0.19600
C3333       C  0.66849469  0.86567465  0.00503811    -0.06200
C3334       C  0.69701926  0.85288112  0.02053492    -0.17300
C3335       C  0.72465807  0.87189444  0.01820235     0.11000
C3336       C  0.72236214  0.90614161  0.00554512    -0.06100
C3337       C  0.69259029  0.92147720  0.99999991    -0.17400
C3338       C  0.66610730  0.90137740  0.99636198     0.11000
S3339       S  0.76231205  0.85095841  0.02725395    -0.32300
S3340       S  0.63259367  0.92149873  0.97319802    -0.32300
H3341       H  0.63784168  0.95515634  0.98583882     0.29000
H3342       H  0.75134310  0.81695621  0.02672468     0.29000
H3343       H  0.69846677  0.82641547  0.02986069     0.19600
H3344       H  0.69073790  0.94838894  0.99215027     0.19600
C3345       C  0.83170475  0.94423966  0.00615452    -0.06200
C3346       C  0.85083557  0.91457736  0.00932566    -0.17300
C3347       C  0.87364689  0.91173376  0.03687715     0.11000
C3348       C  0.87657258  0.93882130  0.06184520    -0.06100
C3349       C  0.86114082  0.97055437  0.05501359    -0.17400
C3350       C  0.83831113  0.97346496  0.02735978     0.11000
S3351       S  0.89522864  0.87148471  0.04361626    -0.32300
S3352       S  0.81436637  0.01244495  0.02310549    -0.32300
H3353       H  0.82602899  0.02885550  0.05415071     0.29000
H3354       H  0.88449789  0.85535527  0.01201754     0.29000
H3355       H  0.84579723  0.89254033  0.99248115     0.19600
H3356       H  0.86377694  0.99124423  0.07418308     0.19600
C3357       C  0.78911204  0.74732938  0.78498392    -0.06200
C3358       C  0.79054636  0.73674307  0.82098891    -0.17300
C3359       C  0.81445127  0.71502722  0.83427374     0.11000
C3360       C  0.83878966  0.70485744  0.81179132    -0.06100
C3361       C  0.83979017  0.71846162  0.77706742    -0.17400
C3362       C  0.81495582  0.73945214  0.76321943     0.11000
S3363       S  0.81203949  0.69768763  0.87907426    -0.32300
S3364       S  0.81677377  0.75306980  0.71736300    -0.32300
H3365       H  0.78677440  0.74092961  0.70780574     0.29000
H3366       H  0.78098426  0.70872870  0.88522081     0.29000
H3367       H  0.77184289  0.74398022  0.83861402     0.19600
H3368       H  0.85864944  0.71050934  0.75991277     0.19600
C3369       C  0.67975186  0.76505000  0.80770378    -0.06200
C3370       C  0.66518495  0.79369189  0.82315334    -0.17300
C3371       C  0.64969501  0.79030214  0.85524852     0.11000
C3372       C  0.64845442  0.75731784  0.87169713    -0.06100
C3373       C  0.66090511  0.72838028  0.85467677    -0.17400
C3374       C  0.67648690  0.73207296  0.82278424     0.11000
S3375       S  0.63277711  0.82848613  0.87557436    -0.32300
S3376       S  0.69401779  0.69447985  0.80323366    -0.32300
H3377       H  0.68987013  0.70581446  0.76764563     0.29000
H3378       H  0.63546316  0.85054610  0.84600046     0.29000
H3379       H  0.66824096  0.81906191  0.81176626     0.19600
H3380       H  0.65906328  0.70311903  0.86666757     0.19600
C3381       C  0.72544103  0.82749083  0.70912785    -0.06200
C3382       C  0.73071184  0.86140748  0.72021934    -0.17300
C3383       C  0.74579177  0.88413339  0.69775972     0.11000
C3384       C  0.75462213  0.87232529  0.66379058    -0.06100
C3385       C  0.74281378  0.84119973  0.65047023    -0.17400
C3386       C  0.72901048  0.81817865  0.67324120     0.11000
S3387       S  0.75883267  0.92510820  0.71495007    -0.32300
S3388       S  0.72259401  0.77511537  0.65702462    -0.32300
H3389       H  0.70129005  0.76611240  0.68327907     0.29000
H3390       H  0.74068345  0.92504347  0.74574232     0.29000
H3391       H  0.72753499  0.86825274  0.74795605     0.19600
H3392       H  0.74900604  0.83213336  0.62417524     0.19600
loop_ 
_geom_bond_atom_site_label_1 
_geom_bond_atom_site_label_2 
_geom_bond_distance 
_geom_bond_site_symmetry_2 
_ccdc_geom_bond_type 
O1           Ni7   1.933       .  S
O1           C22   1.285       .  A
O2          Ni25   2.010       .  S
O2           C11   1.310       .  A
O3           Ni7   1.850       .  S
O3          Ni25   1.873       .  S
O3          Ni19   1.887       .  S
O3           H26   0.966       .  S
C4           O21   1.320       .  A
C4           O13   1.291       .  A
C4         C1052   1.517       .  S
O5          Ni24   1.936       .  S
O5           C11   1.285       .  A
O6          Ni24   1.956       .  S
O6            C8   1.280       .  A
Ni7          O10   1.944       .  S
Ni7          O12   1.933       .  S
C8           O18   1.259       .  A
C8          C544   1.523       .  S
O9          Ni25   1.973       .  S
O9           C15   1.314       .  A
O10          C15   1.289       .  A
C11        C1606   1.516       .  S
O12          C14   1.268       .  A
O13         Ni24   1.932       .  S
C14          O20   1.273       .  A
C14        C1417   1.543       .  S
C15         C910   1.518       .  S
H16          O17   0.967       .  S
O17         Ni25   1.875       .  S
O17         Ni19   1.882       .  S
O17         Ni24   1.847       .  S
O18         Ni19   1.945       .  S
Ni19         O23   1.986       .  S
Ni19         O21   2.004       .  S
O20         Ni25   1.989       .  S
C22          O23   1.307       .  A
C22        C1787   1.495       .  S
O27         Ni33   1.953       .  S
O27          C48   1.289       .  A
O28         Ni51   2.052       .  S
O28          C37   1.331       .  A
O29         Ni33   1.820       .  S
O29         Ni51   1.883       .  S
O29         Ni45   1.880       .  S
O29          H52   0.968       .  S
C30          O47   1.319       .  A
C30          O39   1.299       .  A
C30         C944   1.552       .  S
O31         Ni50   1.956       .  S
O31          C37   1.291       .  A
O32         Ni50   1.969       .  S
O32          C34   1.285       .  A
Ni33         O36   1.889       .  S
Ni33         O38   1.911       .  S
C34          O44   1.278       .  A
C34        C2127   1.557       .  S
O35         Ni51   2.038       .  S
O35          C41   1.336       .  A
O36          C41   1.284       .  A
C37         C698   1.550       .  S
O38          C40   1.282       .  A
O39         Ni50   1.978       .  S
C40          O46   1.287       .  A
C40        C1788   1.511       .  S
C41        C1343   1.529       .  S
H42          O43   0.966       .  S
O43         Ni51   1.862       .  S
O43         Ni45   1.878       .  S
O43         Ni50   1.830       .  S
O44         Ni45   1.988       .  S
Ni45         O49   2.005       .  S
Ni45         O47   1.993       .  S
O46         Ni51   1.977       .  S
C48          O49   1.311       .  A
C48        C1137   1.527       .  S
C53        C3381   1.448       .  S
C53          N54   1.365       .  A
C53          N58   1.356       .  A
N54          C55   1.354       .  A
C55        C3357   1.484       .  S
C55          N56   1.347       .  A
N56          C57   1.346       .  A
C57        C3369   1.458       .  S
C57          N58   1.352       .  A
C59        C3321   1.456       .  S
C59          N60   1.345       .  A
C59          N64   1.355       .  A
N60          C61   1.355       .  A
C61        C3336   1.476   1_556  S
C61          N62   1.357   1_556  A
N62          C63   1.362   1_554  A
C63        C3345   1.462   1_556  S
C63          N64   1.355       .  A
C65        C3285   1.460   1_454  S
C65          N66   1.354   1_554  A
C65          N70   1.368       .  A
N66          C67   1.344   1_556  A
C67        C3309   1.445   1_554  S
C67          N68   1.339       .  A
N68          C69   1.341       .  A
C69        C3297   1.467       .  S
C69          N70   1.367       .  A
C71        C3273   1.480       .  S
C71          N72   1.350   1_655  A
C71          N76   1.346       .  A
N72          C73   1.358       .  A
C73        C3261   1.465       .  S
C73          N74   1.366       .  A
N74          C75   1.364   1_455  A
C75        C3249   1.484       .  S
C75          N76   1.345       .  A
N77          C82   1.337       .  A
N77          C81   1.349       .  A
N77         H109   1.036       .  S
N78          C85   1.328       .  A
N78          C86   1.336       .  A
N79          C84   1.360       .  A
N79          C83   1.370       .  A
N79         H110   1.034       .  S
N80          C87   1.353       .  A
N80          C88   1.351       .  A
C81          C89   1.383       .  A
C81          C97   1.401       .  A
C82          C98   1.404       .  A
C82          C90   1.391       .  A
C83          C91   1.388       .  A
C83         C100   1.457       .  A
C84          C99   1.460       .  A
C84          C92   1.394       .  A
C85          C97   1.398       .  A
C85          C93   1.392       .  A
C86         C100   1.388       .  A
C86          C94   1.377       .  A
C87          C95   1.377   1_556  A
C87          C98   1.406       .  A
C88          C96   1.392       .  A
C88          C99   1.432       .  A
C89          C90   1.372       .  A
C89         H101   1.080       .  S
C90         H102   1.080       .  S
C91          C92   1.413       .  A
C91         H103   1.082       .  S
C92         H104   1.082       .  S
C93          C94   1.369       .  A
C93         H105   1.068       .  S
C94         H106   1.082       .  S
C95          C96   1.369   1_554  A
C95         H107   1.083       .  S
C96         H108   1.072   1_556  S
C97        C3264   1.495       .  S
C98        C3312   1.471       .  S
C99         C366   1.522       .  S
C100        C414   1.530       .  S
N111        C116   1.356       .  A
N111        C115   1.345       .  A
N111        H143   1.036       .  S
N112        C119   1.347       .  A
N112        C120   1.344       .  A
N113        C118   1.374       .  A
N113        C117   1.371       .  A
N113        H144   1.040       .  S
N114        C121   1.343       .  A
N114        C122   1.342       .  A
C115        C123   1.382       .  A
C115        C131   1.407       .  A
C116        C132   1.417       .  A
C116        C124   1.386       .  A
C117        C125   1.391       .  A
C117        C134   1.447       .  A
C118        C133   1.457       .  A
C118        C126   1.384       .  A
C119        C131   1.404       .  A
C119        C127   1.388       .  A
C120        C134   1.402       .  A
C120        C128   1.381       .  A
C121        C129   1.391       .  A
C121        C132   1.415       .  A
C122        C130   1.379       .  A
C122        C133   1.394       .  A
C123        C124   1.376       .  A
C123        H135   1.080       .  S
C124        H136   1.082       .  S
C125        C126   1.402       .  A
C125        H137   1.082       .  S
C126        H138   1.082       .  S
C127        C128   1.372       .  A
C127        H139   1.080   1_655  S
C128        H140   1.081       .  S
C129        C130   1.372       .  A
C129        H141   1.081       .  S
C130        H142   1.077       .  S
C131       C3300   1.491       .  S
C132       C3348   1.479       .  S
C133        C746   1.527       .  S
C134        C470   1.542       .  S
N145        C150   1.342       .  A
N145        C149   1.345       .  A
N145        H177   1.044       .  S
N146        C153   1.350       .  A
N146        C154   1.352       .  A
N147        C152   1.372       .  A
N147        C151   1.368       .  A
N147        H178   1.042       .  S
N148        C155   1.343       .  A
N148        C156   1.338       .  A
C149        C157   1.385       .  A
C149        C165   1.399       .  A
C150        C166   1.410       .  A
C150        C158   1.391       .  A
C151        C159   1.390       .  A
C151        C168   1.460       .  A
C152        C167   1.463       .  A
C152        C160   1.391       .  A
C153        C165   1.397       .  A
C153        C161   1.374       .  A
C154        C168   1.427       .  A
C154        C162   1.396       .  A
C155        C163   1.385       .  A
C155        C166   1.402       .  A
C156        C164   1.389       .  A
C156        C167   1.402       .  A
C157        C158   1.382       .  A
C157        H169   1.082       .  S
C158        H170   1.082       .  S
C159        C160   1.411       .  A
C159        H171   1.081       .  S
C160        H172   1.080       .  S
C161        C162   1.370       .  A
C161        H173   1.083       .  S
C162        H174   1.076       .  S
C163        C164   1.378       .  A
C163        H175   1.082       .  S
C164        H176   1.083       .  S
C165       C3252   1.480       .  S
C166       C3384   1.474       .  S
C167        C458   1.547       .  S
C168       C1291   1.548       .  S
N179        C184   1.349       .  A
N179        C183   1.344       .  A
N179        H211   1.033       .  S
N180        C187   1.357       .  A
N180        C188   1.355       .  A
N181        C186   1.364       .  A
N181        C185   1.364       .  A
N181        H212   1.034       .  S
N182        C189   1.352       .  A
N182        C190   1.346       .  A
C183        C191   1.385       .  A
C183        C199   1.404       .  A
C184        C200   1.410       .  A
C184        C192   1.388       .  A
C185        C193   1.388       .  A
C185        C202   1.443       .  A
C186        C201   1.443       .  A
C186        C194   1.388       .  A
C187        C199   1.417       .  A
C187        C195   1.382       .  A
C188        C202   1.429       .  A
C188        C196   1.394       .  A
C189        C197   1.385       .  A
C189        C200   1.410       .  A
C190        C198   1.389       .  A
C190        C201   1.411       .  A
C191        C192   1.377       .  A
C191        H203   1.082       .  S
C192        H204   1.082       .  S
C193        C194   1.396       .  A
C193        H205   1.082       .  S
C194        H206   1.082       .  S
C195        C196   1.361       .  A
C195        H207   1.082       .  S
C196        H208   1.079       .  S
C197        C198   1.362       .  A
C197        H209   1.081       .  S
C198        H210   1.080   1_556  S
C199       C3360   1.479       .  S
C200       C3288   1.481       .  S
C201        C395   1.502       .  S
C202       C1261   1.509       .  S
N213        C218   1.344       .  A
N213        C217   1.349       .  A
N213        H245   1.037       .  S
N214        C221   1.339       .  A
N214        C222   1.332       .  A
N215        C220   1.364       .  A
N215        C219   1.371       .  A
N215        H246   1.036       .  S
N216        C223   1.358       .  A
N216        C224   1.356       .  A
C217        C225   1.383       .  A
C217        C233   1.405       .  A
C218        C234   1.417       .  A
C218        C226   1.394       .  A
C219        C227   1.391       .  A
C219        C236   1.464       .  A
C220        C235   1.461       .  A
C220        C228   1.392       .  A
C221        C233   1.396       .  A
C221        C229   1.387       .  A
C222        C236   1.389       .  A
C222        C230   1.386       .  A
C223        C231   1.371   1_556  A
C223        C234   1.411       .  A
C224        C232   1.382   1_556  A
C224        C235   1.424       .  A
C225        C226   1.374       .  A
C225        H237   1.083       .  S
C226        H238   1.078       .  S
C227        C228   1.414       .  A
C227        H239   1.082       .  S
C228        H240   1.082       .  S
C229        C230   1.377       .  A
C229        H241   1.083       .  S
C230        H242   1.082       .  S
C231        C232   1.368       .  A
C231        H243   1.070       .  S
C232        H244   1.073       .  S
C233       C3372   1.480       .  S
C234       C3333   1.499   1_556  S
C235        C496   1.540       .  S
C236        C346   1.530       .  S
N247        C252   1.340       .  A
N247        C251   1.342       .  A
N247        H279   1.044       .  S
N248        C255   1.340       .  A
N248        C256   1.327       .  A
N249        C254   1.376       .  A
N249        C253   1.385       .  A
N249        H280   1.041       .  S
N250        C257   1.350       .  A
N250        C258   1.351       .  A
C251        C259   1.386       .  A
C251        C267   1.405       .  A
C252        C268   1.396       .  A
C252        C260   1.389       .  A
C253        C261   1.391       .  A
C253        C270   1.483       .  A
C254        C269   1.483       .  A
C254        C262   1.393       .  A
C255        C267   1.395       .  A
C255        C263   1.381       .  A
C256        C270   1.401       .  A
C256        C264   1.392       .  A
C257        C265   1.381       .  A
C257        C268   1.406       .  A
C258        C266   1.392       .  A
C258        C269   1.419       .  A
C259        C260   1.379       .  A
C259        H271   1.080       .  S
C260        H272   1.082       .  S
C261        C262   1.419       .  A
C261        H273   1.082       .  S
C262        H274   1.082       .  S
C263        C264   1.384       .  A
C263        H275   1.083       .  S
C264        H276   1.077       .  S
C265        C266   1.369       .  A
C265        H277   1.082       .  S
C266        H278   1.080       .  S
C267       C3324   1.471       .  S
C268       C3276   1.473       .  S
C269       C2001   1.565       .  S
C270        C782   1.568       .  S
O281       Ni287   1.923       .  S
O281        C302   1.282       .  A
O282       Ni305   1.978       .  S
O282        C291   1.315       .  A
O283       Ni287   1.865       .  S
O283       Ni305   1.862       .  S
O283       Ni299   1.914       .  S
O283        H306   0.966       .  S
C284        O301   1.317       .  A
C284        O293   1.301       .  A
C284        C943   1.570       .  S
O285       Ni304   1.960       .  S
O285        C291   1.296       .  A
O286       Ni304   1.977       .  S
O286        C288   1.283       .  A
Ni287       O290   1.964       .  S
Ni287       O292   1.947       .  S
C288        O298   1.271       .  A
C288       C1103   1.552       .  S
O289       Ni305   2.044       .  S
O289        C295   1.331       .  A
O290        C295   1.296       .  A
C291        C543   1.530       .  S
O292        C294   1.277       .  A
O293       Ni304   1.989       .  S
C294        O300   1.279       .  A
C294       C1839   1.557       .  S
C295       C1560   1.576       .  S
H296        O297   0.966       .  S
O297       Ni305   1.910       .  S
O297       Ni299   1.868       .  S
O297       Ni304   1.874       .  S
O298       Ni299   1.978       .  S
Ni299       O303   1.970       .  S
Ni299       O301   2.007       .  S
O300       Ni305   2.003       .  S
C302        O303   1.301       .  A
C302       C2041   1.487       .  S
O307       Ni313   1.944       .  S
O307        C328   1.291       .  A
O308       Ni331   1.991       .  S
O308        C317   1.319       .  A
O309       Ni313   1.882       .  S
O309       Ni331   1.897       .  S
O309       Ni325   1.890       .  S
O309        H332   0.967       .  S
C310        O327   1.313       .  A
C310        O319   1.307       .  A
C310       C1645   1.569       .  S
O311       Ni330   1.988       .  S
O311        C317   1.301       .  A
O312       Ni330   1.968       .  S
O312        C314   1.286       .  A
Ni313       O316   1.961       .  S
Ni313       O318   1.932       .  S
C314        O324   1.274       .  A
C314       C1840   1.548       .  S
O315       Ni331   2.053       .  S
O315        C321   1.338       .  A
O316        C321   1.297       .  A
C317       C2088   1.564       .  S
O318        C320   1.263       .  A
O319       Ni330   2.009       .  S
C320        O326   1.247       .  A
C320       C1378   1.504       .  S
C321        C697   1.564       .  S
H322        O323   0.966       .  S
O323       Ni331   1.885       .  S
O323       Ni325   1.876       .  S
O323       Ni330   1.853       .  S
O324       Ni325   1.976       .  S
Ni325       O329   1.991       .  S
Ni325       O327   1.986       .  S
O326       Ni331   1.945       .  S
C328        O329   1.307       .  A
C328        C909   1.544       .  S
O333       Ni339   1.982       .  S
O333        C354   1.297       .  A
O334       Ni357   1.958       .  S
O334        C343   1.304       .  A
O335       Ni339   1.879       .  S
O335       Ni357   1.868       .  S
O335       Ni351   1.882       .  S
O335        H358   0.968       .  S
C336        O353   1.310       .  A
C336        O345   1.300       .  A
C336        C663   1.515       .  S
O337       Ni356   1.942       .  S
O337        C343   1.290       .  A
O338       Ni356   1.911       .  S
O338        C340   1.269       .  A
Ni339       O342   1.965       .  S
Ni339       O344   1.988       .  S
C340        O350   1.275       .  A
C340       C1605   1.542       .  S
O341       Ni357   2.007       .  S
O341        C347   1.319       .  A
O342        C347   1.300       .  A
C343        C841   1.522       .  S
O344        C346   1.282       .  A
O345       Ni356   1.961       .  S
C346        O352   1.254       .  A
C347       C1171   1.541       .  S
H348        O349   0.966       .  S
O349       Ni357   1.881       .  S
O349       Ni351   1.873       .  S
O349       Ni356   1.846       .  S
O350       Ni351   1.992       .  S
Ni351       O355   1.943       .  S
Ni351       O353   1.981       .  S
O352       Ni357   1.947       .  S
C354        O355   1.301       .  A
C354       C1452   1.537       .  S
O359       Ni365   1.919       .  S
O359        C380   1.280       .  A
O360       Ni383   1.984       .  S
O360        C369   1.304       .  A
O361       Ni365   1.855   1_556  S
O361       Ni383   1.883       .  S
O361       Ni377   1.867   1_556  S
O361        H384   0.969       .  S
C362        O379   1.314       .  A
C362        O371   1.291       .  A
C362       C2195   1.498       .  S
O363       Ni382   1.921       .  S
O363        C369   1.281       .  A
O364       Ni382   1.936       .  S
O364        C366   1.273       .  A
Ni365       O368   1.950   1_554  S
Ni365       O370   1.942       .  S
C366        O376   1.274       .  A
O367       Ni383   1.960       .  S
O367        C373   1.304       .  A
O368        C373   1.296       .  A
C369       C1748   1.499       .  S
O370        C372   1.275       .  A
O371       Ni382   1.944   1_554  S
C372        O378   1.274       .  A
C372       C1104   1.535       .  S
C373        C842   1.504       .  S
H374        O375   0.967   1_554  S
O375       Ni383   1.866       .  S
O375       Ni377   1.881   1_556  S
O375       Ni382   1.862       .  S
O376       Ni377   1.972   1_556  S
Ni377       O381   2.022       .  S
Ni377       O379   1.952       .  S
O378       Ni383   1.983   1_554  S
C380        O381   1.314       .  A
C380        C618   1.525       .  S
O385       Ni391   1.922       .  S
O385        C406   1.287       .  A
O386       Ni409   1.953       .  S
O386        C395   1.301       .  A
O387       Ni391   1.855       .  S
O387       Ni409   1.856   1_454  S
O387       Ni403   1.854   1_455  S
O387        H410   0.966       .  S
C388        O405   1.315       .  A
C388        O397   1.291       .  A
C388       C1907   1.514       .  S
O389       Ni408   1.957   1_556  S
O389        C395   1.291       .  A
O390       Ni408   1.910       .  S
O390        C392   1.277       .  A
Ni391       O394   1.971   1_554  S
Ni391       O396   1.926   1_554  S
C392        O402   1.297       .  A
C392       C1205   1.528       .  S
O393       Ni409   1.964   1_455  S
O393        C399   1.315       .  A
O394        C399   1.298       .  A
O396        C398   1.273       .  A
O397       Ni408   1.914       .  S
C398        O404   1.261       .  A
C398       C1012   1.500       .  S
C399       C1747   1.525       .  S
H400        O401   0.966   1_556  S
O401       Ni409   1.864   1_554  S
O401       Ni403   1.852       .  S
O401       Ni408   1.817       .  S
O402       Ni403   2.003       .  S
Ni403       O407   1.968   1_655  S
Ni403       O405   1.981       .  S
O404       Ni409   1.938   1_455  S
C406        O407   1.306       .  A
C406       C2042   1.507       .  S
O411       Ni417   1.985       .  S
O411        C432   1.299       .  A
O412       Ni435   2.004       .  S
O412        C421   1.314       .  A
O413       Ni417   1.821       .  S
O413       Ni435   1.875   1_545  S
O413       Ni429   1.870   1_545  S
O413        H436   0.968       .  S
C414        O431   1.310       .  A
C414        O423   1.288       .  A
O415       Ni434   1.932       .  S
O415        C421   1.284       .  A
O416       Ni434   1.973       .  S
O416        C418   1.285       .  A
Ni417       O420   1.913       .  S
Ni417       O422   1.911       .  S
C418        O428   1.272       .  A
C418       C1714   1.548       .  S
O419       Ni435   2.016   1_545  S
O419        C425   1.322       .  A
O420        C425   1.297       .  A
C421        C664   1.500       .  S
O422        C424   1.283       .  A
O423       Ni434   1.965       .  S
C424        O430   1.300       .  A
C424        C978   1.539       .  S
C425       C1377   1.520       .  S
H426        O427   0.967       .  S
O427       Ni435   1.877       .  S
O427       Ni429   1.839       .  S
O427       Ni434   1.854       .  S
O428       Ni429   1.976       .  S
Ni429       O433   1.939   1_565  S
Ni429       O431   1.949       .  S
O430       Ni435   2.021   1_545  S
C432        O433   1.294       .  A
C432       C2162   1.515       .  S
O437       Ni443   1.961       .  S
O437        C458   1.293       .  A
O438       Ni461   1.979       .  S
O438        C447   1.302       .  A
O439       Ni443   1.872       .  S
O439       Ni461   1.882       .  S
O439       Ni455   1.875       .  S
O439        H462   0.966       .  S
C440        O457   1.317       .  A
C440        O449   1.300       .  A
C440       C1451   1.519       .  S
O441       Ni460   1.932       .  S
O441        C447   1.284       .  A
O442       Ni460   1.925       .  S
O442        C444   1.273       .  A
Ni443       O446   1.976       .  S
Ni443       O448   1.949       .  S
C444        O454   1.273       .  A
C444        C583   1.536       .  S
O445       Ni461   1.931       .  S
O445        C451   1.300       .  A
O446        C451   1.302       .  A
C447       C1051   1.517       .  S
O448        C450   1.275       .  A
O449       Ni460   1.960       .  S
C450        O456   1.261       .  A
C450       C1680   1.514       .  S
C451       C1942   1.517       .  S
H452        O453   0.966       .  S
O453       Ni461   1.856       .  S
O453       Ni455   1.888       .  S
O453       Ni460   1.850       .  S
O454       Ni455   1.979       .  S
Ni455       O459   1.989       .  S
Ni455       O457   1.990       .  S
O456       Ni461   1.945       .  S
C458        O459   1.315       .  A
O463       Ni469   1.931   1_655  S
O463        C484   1.285       .  A
O464       Ni487   1.895       .  S
O464        C473   1.287       .  A
O465       Ni469   1.864   1_655  S
O465       Ni487   1.839   1_655  S
O465       Ni481   1.868       .  S
O465        H488   0.966       .  S
C466        O483   1.313       .  A
C466        O475   1.304       .  A
C466       C1206   1.533       .  S
O467       Ni486   1.977   1_455  S
O467        C473   1.298       .  A
O468       Ni486   1.972       .  S
O468        C470   1.276       .  A
Ni469       O472   1.970       .  S
Ni469       O474   1.952       .  S
C470        O480   1.267       .  A
O471       Ni487   1.941       .  S
O471        C477   1.300       .  A
O472        C477   1.297       .  A
C473       C2194   1.513       .  S
O474        C476   1.276       .  A
O475       Ni486   1.981       .  S
C476        O482   1.272       .  A
C476       C1559   1.541       .  S
C477        C731   1.519       .  S
H478        O479   0.966       .  S
O479       Ni487   1.870       .  S
O479       Ni481   1.868   1_455  S
O479       Ni486   1.888   1_455  S
O480       Ni481   1.971       .  S
Ni481       O485   1.944       .  S
Ni481       O483   1.968       .  S
O482       Ni487   1.978       .  S
C484        O485   1.305       .  A
C484       C1941   1.482       .  S
O489       Ni495   1.991   1_554  S
O489        C510   1.299       .  A
O490       Ni513   1.999       .  S
O490        C499   1.316       .  A
O491       Ni495   1.833       .  S
O491       Ni513   1.855   1_565  S
O491       Ni507   1.873   1_556  S
O491        H514   0.968       .  S
C492        O509   1.310       .  A
C492        O501   1.297       .  A
C492       C1239   1.529       .  S
O493       Ni512   1.914   1_545  S
O493        C499   1.283       .  A
O494       Ni512   1.940       .  S
O494        C496   1.273       .  A
Ni495       O498   1.920       .  S
Ni495       O500   1.932   1_566  S
C496        O506   1.274       .  A
O497       Ni513   2.028       .  S
O497        C503   1.333       .  A
O498        C503   1.292   1_565  A
C499       C1519   1.509       .  S
O500        C502   1.293       .  A
O501       Ni512   1.966   1_554  S
C502        O508   1.299       .  A
C502       C2128   1.558       .  S
C503        C977   1.535       .  S
H504        O505   0.967       .  S
O505       Ni513   1.885   1_554  S
O505       Ni507   1.855   1_545  S
O505       Ni512   1.865   1_544  S
O506       Ni507   1.987   1_556  S
Ni507       O511   1.930       .  S
Ni507       O509   1.976       .  S
O508       Ni513   2.026   1_554  S
C510        O511   1.299       .  A
C510        C617   1.525       .  S
C515       C3216   1.476       .  S
C515        N516   1.357       .  A
C515        N520   1.353       .  A
N516        C517   1.348       .  A
C517       C3225   1.461       .  S
C517        N518   1.355       .  A
N518        C519   1.350       .  A
C519       C3237   1.472       .  S
C519        N520   1.355       .  A
N521        C526   1.348       .  A
N521        C525   1.350       .  A
N521        H553   1.040       .  S
N522        C529   1.337       .  A
N522        C530   1.332       .  A
N523        C528   1.358       .  A
N523        C527   1.376       .  A
N523        H554   1.043       .  S
N524        C531   1.342       .  A
N524        C532   1.344       .  A
C525        C533   1.385       .  A
C525        C541   1.412       .  A
C526        C542   1.411       .  A
C526        C534   1.389       .  A
C527        C535   1.381       .  A
C527        C544   1.443       .  A
C528        C543   1.433       .  A
C528        C536   1.394       .  A
C529        C541   1.398       .  A
C529        C537   1.385       .  A
C530        C544   1.379       .  A
C530        C538   1.372       .  A
C531        C539   1.385       .  A
C531        C542   1.407       .  A
C532        C540   1.380       .  A
C532        C543   1.391       .  A
C533        C534   1.377       .  A
C533        H545   1.083       .  S
C534        H546   1.081       .  S
C535        C536   1.393       .  A
C535        H547   1.082       .  S
C536        H548   1.083       .  S
C537        C538   1.372       .  A
C537        H549   1.076       .  S
C538        H550   1.073       .  S
C539        C540   1.371       .  A
C539        H551   1.068       .  S
C540        H552   1.083       .  S
C541       C3201   1.473       .  S
C542       C3228   1.475       .  S
C555       C3177   1.478       .  S
C555        N556   1.356       .  A
C555        N560   1.372       .  A
N556        C557   1.341   1_565  A
C557       C3189   1.457       .  S
C557        N558   1.340       .  A
N558        C559   1.347       .  A
C559       C3165   1.496       .  S
C559        N560   1.370   1_545  A
N561        C566   1.340       .  A
N561        C565   1.345       .  A
N561        H593   1.044       .  S
N562        C569   1.339       .  A
N562        C570   1.338       .  A
N563        C568   1.365       .  A
N563        C567   1.370       .  A
N563        H594   1.043       .  S
N564        C571   1.356       .  A
N564        C572   1.351       .  A
C565        C573   1.388       .  A
C565        C581   1.398       .  A
C566        C582   1.393       .  A
C566        C574   1.389       .  A
C567        C575   1.390       .  A
C567        C584   1.457       .  A
C568        C583   1.456       .  A
C568        C576   1.392       .  A
C569        C581   1.384       .  A
C569        C577   1.373   1_565  A
C570        C584   1.395       .  A
C570        C578   1.391   1_565  A
C571        C579   1.374       .  A
C571        C582   1.397       .  A
C572        C580   1.390       .  A
C572        C583   1.426       .  A
C573        C574   1.363       .  A
C573        H585   1.081       .  S
C574        H586   1.082       .  S
C575        C576   1.412       .  A
C575        H587   1.082       .  S
C576        H588   1.082       .  S
C577        C578   1.375       .  A
C577        H589   1.077       .  S
C578        H590   1.081       .  S
C579        C580   1.364       .  A
C579        H591   1.083       .  S
C580        H592   1.072       .  S
C581       C3168   1.473   1_565  S
C582       C3153   1.469       .  S
C584        C756   1.526       .  S
N595        C600   1.357       .  A
N595        C599   1.340       .  A
N595        H627   1.036       .  S
N596        C603   1.355       .  A
N596        C604   1.360       .  A
N597        C602   1.360       .  A
N597        C601   1.360       .  A
N597        H628   1.033       .  S
N598        C605   1.346       .  A
N598        C606   1.340       .  A
C599        C607   1.392       .  A
C599        C615   1.416       .  A
C600        C616   1.410       .  A
C600        C608   1.383       .  A
C601        C609   1.394       .  A
C601        C618   1.455       .  A
C602        C617   1.445       .  A
C602        C610   1.387   1_554  A
C603        C615   1.426       .  A
C603        C611   1.385       .  A
C604        C618   1.437       .  A
C604        C612   1.389       .  A
C605        C613   1.389       .  A
C605        C616   1.413       .  A
C606        C614   1.386       .  A
C606        C617   1.409       .  A
C607        C608   1.376       .  A
C607        H619   1.082       .  S
C608        H620   1.080       .  S
C609        C610   1.410   1_554  A
C609        H621   1.082   1_554  S
C610        H622   1.082       .  S
C611        C612   1.370       .  A
C611        H623   1.079       .  S
C612        H624   1.081       .  S
C613        C614   1.378       .  A
C613        H625   1.083       .  S
C614        H626   1.082       .  S
C615       C3240   1.478       .  S
C616       C3180   1.496       .  S
C629       C3129   1.450       .  S
C629        N630   1.338   1_545  A
C629        N634   1.356       .  A
N630        C631   1.342       .  A
C631       C3117   1.461       .  S
C631        N632   1.358       .  A
N632        C633   1.373   1_565  A
C633       C3141   1.489       .  S
C633        N634   1.357       .  A
C635       C3204   1.452       .  S
C635        N636   1.360       .  A
C635        N640   1.358       .  A
N636        C637   1.349       .  A
C637       C3105   1.464       .  S
C637        N638   1.344       .  A
N638        C639   1.346       .  A
C639       C3156   1.467       .  S
C639        N640   1.359       .  A
N641        C646   1.342       .  A
N641        C645   1.353       .  A
N641        H673   1.043       .  S
N642        C649   1.346       .  A
N642        C650   1.339       .  A
N643        C648   1.358       .  A
N643        C647   1.365       .  A
N643        H674   1.038       .  S
N644        C651   1.358       .  A
N644        C652   1.358       .  A
C645        C653   1.383       .  A
C645        C661   1.405       .  A
C646        C662   1.408       .  A
C646        C654   1.391       .  A
C647        C655   1.387       .  A
C647        C664   1.439       .  A
C648        C663   1.439       .  A
C648        C656   1.389       .  A
C649        C661   1.390       .  A
C649        C657   1.379       .  A
C650        C664   1.406       .  A
C650        C658   1.392       .  A
C651        C659   1.381       .  A
C651        C662   1.417       .  A
C652        C660   1.389       .  A
C652        C663   1.429       .  A
C653        C654   1.378       .  A
C653        H665   1.082       .  S
C654        H666   1.082       .  S
C655        C656   1.399       .  A
C655        H667   1.082       .  S
C656        H668   1.082       .  S
C657        C658   1.366       .  A
C657        H669   1.083       .  S
C658        H670   1.075       .  S
C659        C660   1.368       .  A
C659        H671   1.083       .  S
C660        H672   1.074       .  S
C661       C3120   1.486       .  S
C662       C3108   1.486       .  S
N675        C680   1.330       .  A
N675        C679   1.345       .  A
N675        H707   1.039       .  S
N676        C683   1.343       .  A
N676        C684   1.329       .  A
N677        C682   1.377       .  A
N677        C681   1.385       .  A
N677        H708   1.038       .  S
N678        C685   1.358       .  A
N678        C686   1.360       .  A
C679        C687   1.384       .  A
C679        C695   1.398       .  A
C680        C696   1.389       .  A
C680        C688   1.389       .  A
C681        C689   1.391       .  A
C681        C698   1.484       .  A
C682        C697   1.486       .  A
C682        C690   1.394       .  A
C683        C695   1.392       .  A
C683        C691   1.378       .  A
C684        C698   1.388       .  A
C684        C692   1.385       .  A
C685        C693   1.383       .  A
C685        C696   1.422       .  A
C686        C694   1.391       .  A
C686        C697   1.430       .  A
C687        C688   1.382       .  A
C687        H699   1.082       .  S
C688        H700   1.082       .  S
C689        C690   1.418       .  A
C689        H701   1.082       .  S
C690        H702   1.082       .  S
C691        C692   1.362       .  A
C691        H703   1.082       .  S
C692        H704   1.075       .  S
C693        C694   1.354       .  A
C693        H705   1.079       .  S
C694        H706   1.075       .  S
C695       C3192   1.472       .  S
C696       C3132   1.466       .  S
N709        C714   1.340       .  A
N709        C713   1.350       .  A
N709        H741   1.043       .  S
N710        C717   1.339       .  A
N710        C718   1.335       .  A
N711        C716   1.360       .  A
N711        C715   1.366       .  A
N711        H742   1.040       .  S
N712        C719   1.350       .  A
N712        C720   1.354       .  A
C713        C721   1.389       .  A
C713        C729   1.410       .  A
C714        C730   1.391       .  A
C714        C722   1.383       .  A
C715        C723   1.387   1_455  A
C715        C732   1.446       .  A
C716        C731   1.450       .  A
C716        C724   1.392       .  A
C717        C729   1.394       .  A
C717        C725   1.377       .  A
C718        C732   1.390       .  A
C718        C726   1.387       .  A
C719        C727   1.376       .  A
C719        C730   1.400       .  A
C720        C728   1.397       .  A
C720        C731   1.430       .  A
C721        C722   1.367       .  A
C721        H733   1.074       .  S
C722        H734   1.082       .  S
C723        C724   1.405   1_655  A
C723        H735   1.082       .  S
C724        H736   1.081   1_455  S
C725        C726   1.380       .  A
C725        H737   1.071   1_565  S
C726        H738   1.083       .  S
C727        C728   1.361       .  A
C727        H739   1.083       .  S
C728        H740   1.076       .  S
C729       C3144   1.485   1_565  S
C730       C3213   1.459       .  S
C732       C1298   1.530       .  S
O743       Ni749   1.955       .  S
O743        C764   1.293       .  A
O744       Ni767   2.038       .  S
O744        C753   1.320       .  A
O745       Ni749   1.841       .  S
O745       Ni767   1.879   1_565  S
O745       Ni761   1.868       .  S
O745        H768   0.967   1_565  S
C746        O763   1.323       .  A
C746        O755   1.285       .  A
O747       Ni766   1.945       .  S
O747        C753   1.284   1_565  A
O748       Ni766   1.925   1_545  S
O748        C750   1.284       .  A
Ni749       O752   1.976   1_565  S
Ni749       O754   1.947       .  S
C750        O760   1.293   1_545  A
C750       C2229   1.537       .  S
O751       Ni767   2.001       .  S
O751        C757   1.322       .  A
O752        C757   1.301       .  A
C753       C1976   1.541       .  S
O754        C756   1.278       .  A
O755       Ni766   1.908       .  S
C756        O762   1.276       .  A
C757       C1344   1.552       .  S
H758        O759   0.968       .  S
O759       Ni767   1.892   1_565  S
O759       Ni761   1.872       .  S
O759       Ni766   1.798       .  S
O760       Ni761   2.013       .  S
Ni761       O765   1.978       .  S
Ni761       O763   2.029       .  S
O762       Ni767   1.965   1_565  S
C764        O765   1.311       .  A
C764       C1240   1.537       .  S
O769       Ni775   1.982       .  S
O769        C790   1.298       .  A
O770       Ni793   1.968       .  S
O770        C779   1.309       .  A
O771       Ni775   1.793   1_554  S
O771       Ni793   1.847       .  S
O771       Ni787   1.879   1_554  S
O771        H794   0.980       .  S
C772        O789   1.318       .  A
C772        O781   1.301       .  A
C772        C875   1.567       .  S
O773       Ni792   1.962       .  S
O773        C779   1.298       .  A
O774       Ni792   1.904       .  S
O774        C776   1.274       .  A
Ni775       O778   1.921   1_556  S
Ni775       O780   1.913       .  S
C776        O786   1.292       .  A
C776       C1138   1.520       .  S
O777       Ni793   2.055       .  S
O777        C783   1.335       .  A
O778        C783   1.291       .  A
C779       C1908   1.510       .  S
O780        C782   1.292       .  A
O781       Ni792   1.963   1_556  S
C782        O788   1.301       .  A
C783       C2228   1.536       .  S
H784        O785   0.964       .  S
O785       Ni793   1.907   1_556  S
O785       Ni787   1.853       .  S
O785       Ni792   1.802   1_556  S
O786       Ni787   2.011   1_554  S
Ni787       O791   1.943       .  S
Ni787       O789   2.000       .  S
O788       Ni793   2.043   1_556  S
C790        O791   1.298       .  A
C790       C1520   1.517       .  S
C795       C3069   1.469       .  S
C795        N796   1.357       .  A
C795        N800   1.357       .  A
N796        C797   1.354       .  A
C797       C3093   1.454       .  S
C797        N798   1.349       .  A
N798        C799   1.348       .  A
C799       C3081   1.481       .  S
C799        N800   1.351       .  A
C801       C3033   1.469       .  S
C801        N802   1.346       .  A
C801        N806   1.346       .  A
N802        C803   1.354       .  A
C803       C3057   1.484       .  S
C803        N804   1.363       .  A
N804        C805   1.363       .  A
C805       C3045   1.463       .  S
C805        N806   1.352       .  A
C807       C3024   1.501       .  S
C807        N808   1.349       .  A
C807        N812   1.361       .  A
N808        C809   1.356       .  A
C809       C3009   1.471       .  S
C809        N810   1.351       .  A
N810        C811   1.355       .  A
C811       C2997   1.491       .  S
C811        N812   1.363       .  A
C813       C2976   1.480       .  S
C813        N814   1.355       .  A
C813        N818   1.361       .  A
N814        C815   1.356       .  A
C815       C2961   1.481       .  S
C815        N816   1.354       .  A
N816        C817   1.357       .  A
C817       C2985   1.474       .  S
C817        N818   1.355       .  A
N819        C824   1.352       .  A
N819        C823   1.347       .  A
N819        H851   1.041       .  S
N820        C827   1.355       .  A
N820        C828   1.357       .  A
N821        C826   1.365       .  A
N821        C825   1.344       .  A
N821        H852   1.043       .  S
N822        C829   1.332       .  A
N822        C830   1.336       .  A
C823        C831   1.385       .  A
C823        C839   1.404       .  A
C824        C840   1.414       .  A
C824        C832   1.389       .  A
C825        C833   1.386       .  A
C825        C842   1.419       .  A
C826        C841   1.433       .  A
C826        C834   1.388       .  A
C827        C839   1.421       .  A
C827        C835   1.387       .  A
C828        C842   1.416       .  A
C828        C836   1.385       .  A
C829        C837   1.380       .  A
C829        C840   1.393       .  A
C830        C838   1.385       .  A
C830        C841   1.393       .  A
C831        C832   1.373       .  A
C831        H843   1.082       .  S
C832        H844   1.082       .  S
C833        C834   1.396       .  A
C833        H845   1.082       .  S
C834        H846   1.082       .  S
C835        C836   1.368       .  A
C835        H847   1.081       .  S
C836        H848   1.079       .  S
C837        C838   1.381       .  A
C837        H849   1.074       .  S
C838        H850   1.081       .  S
C839       C2964   1.482       .  S
C840       C3012   1.475       .  S
N853        C858   1.341       .  A
N853        C857   1.353       .  A
N853        H885   1.041       .  S
N854        C861   1.343       .  A
N854        C862   1.335       .  A
N855        C860   1.372       .  A
N855        C859   1.378       .  A
N855        H886   1.043       .  S
N856        C863   1.361       .  A
N856        C864   1.362       .  A
C857        C865   1.387       .  A
C857        C873   1.405       .  A
C858        C874   1.396       .  A
C858        C866   1.386       .  A
C859        C867   1.387       .  A
C859        C876   1.467       .  A
C860        C875   1.461       .  A
C860        C868   1.390       .  A
C861        C873   1.392       .  A
C861        C869   1.381       .  A
C862        C876   1.399       .  A
C862        C870   1.390       .  A
C863        C871   1.381       .  A
C863        C874   1.419       .  A
C864        C872   1.390       .  A
C864        C875   1.431       .  A
C865        C866   1.364       .  A
C865        H877   1.080       .  S
C866        H878   1.083       .  S
C867        C868   1.408       .  A
C867        H879   1.078       .  S
C868        H880   1.082       .  S
C869        C870   1.372       .  A
C869        H881   1.081       .  S
C870        H882   1.082       .  S
C871        C872   1.355       .  A
C871        H883   1.081       .  S
C872        H884   1.081       .  S
C873       C3000   1.488       .  S
C874       C3036   1.472       .  S
C876       C1264   1.539       .  S
N887        C892   1.339       .  A
N887        C891   1.357       .  A
N887        H919   1.043       .  S
N888        C895   1.344       .  A
N888        C896   1.334       .  A
N889        C894   1.362       .  A
N889        C893   1.364       .  A
N889        H920   1.043       .  S
N890        C897   1.355       .  A
N890        C898   1.366       .  A
C891        C899   1.383       .  A
C891        C907   1.405       .  A
C892        C908   1.405       .  A
C892        C900   1.392       .  A
C893        C901   1.389       .  A
C893        C910   1.441       .  A
C894        C909   1.446       .  A
C894        C902   1.391       .  A
C895        C907   1.396       .  A
C895        C903   1.371       .  A
C896        C910   1.398       .  A
C896        C904   1.388       .  A
C897        C905   1.381       .  A
C897        C908   1.418       .  A
C898        C906   1.393       .  A
C898        C909   1.439       .  A
C899        C900   1.368       .  A
C899        H911   1.082       .  S
C900        H912   1.082       .  S
C901        C902   1.399       .  A
C901        H913   1.081       .  S
C902        H914   1.081       .  S
C903        C904   1.376       .  A
C903        H915   1.072       .  S
C904        H916   1.082       .  S
C905        C906   1.370       .  A
C905        H917   1.083       .  S
C906        H918   1.077       .  S
C907       C3021   1.495       .  S
C908       C3084   1.466       .  S
N921        C926   1.345       .  A
N921        C925   1.355       .  A
N921        H953   1.033       .  S
N922        C929   1.344       .  A
N922        C930   1.342       .  A
N923        C928   1.377       .  A
N923        C927   1.379       .  A
N923        H954   1.038       .  S
N924        C931   1.354       .  A
N924        C932   1.356       .  A
C925        C933   1.386       .  A
C925        C941   1.414       .  A
C926        C942   1.411       .  A
C926        C934   1.388       .  A
C927        C935   1.388       .  A
C927        C944   1.470       .  A
C928        C943   1.471       .  A
C928        C936   1.390       .  A
C929        C941   1.418       .  A
C929        C937   1.389       .  A
C930        C944   1.407       .  A
C930        C938   1.386       .  A
C931        C939   1.377       .  A
C931        C942   1.412       .  A
C932        C940   1.394       .  A
C932        C943   1.437       .  A
C933        C934   1.369       .  A
C933        H945   1.082   1_554  S
C934        H946   1.083   1_554  S
C935        C936   1.406       .  A
C935        H947   1.082       .  S
C936        H948   1.082       .  S
C937        C938   1.367       .  A
C937        H949   1.079       .  S
C938        H950   1.080       .  S
C939        C940   1.371       .  A
C939        H951   1.082       .  S
C940        H952   1.078       .  S
C941       C3048   1.488       .  S
C942       C2988   1.488       .  S
N955        C960   1.354       .  A
N955        C959   1.343       .  A
N955        H987   1.043       .  S
N956        C963   1.353       .  A
N956        C964   1.357       .  A
N957        C962   1.369       .  A
N957        C961   1.364       .  A
N957        H988   1.043       .  S
N958        C965   1.342       .  A
N958        C966   1.334       .  A
C959        C967   1.388       .  A
C959        C975   1.405       .  A
C960        C976   1.414       .  A
C960        C968   1.388       .  A
C961        C969   1.390       .  A
C961        C978   1.452       .  A
C962        C977   1.457       .  A
C962        C970   1.391       .  A
C963        C975   1.398       .  A
C963        C971   1.375       .  A
C964        C978   1.425       .  A
C964        C972   1.386       .  A
C965        C973   1.376       .  A
C965        C976   1.392       .  A
C966        C974   1.385       .  A
C966        C977   1.387       .  A
C967        C968   1.374       .  A
C967        H979   1.082       .  S
C968        H980   1.081       .  S
C969        C970   1.412       .  A
C969        H981   1.082   1_545  S
C970        H982   1.082   1_545  S
C971        C972   1.361       .  A
C971        H983   1.083       .  S
C972        H984   1.064       .  S
C973        C974   1.374       .  A
C973        H985   1.069       .  S
C974        H986   1.082   1_545  S
C975       C3072   1.469       .  S
C976       C3060   1.487       .  S
N989        C994   1.343       .  A
N989        C993   1.345       .  A
N989       H1021   1.042       .  S
N990        C997   1.337       .  A
N990        C998   1.331       .  A
N991        C996   1.363       .  A
N991        C995   1.362       .  A
N991       H1022   1.042       .  S
N992        C999   1.348       .  A
N992       C1000   1.347       .  A
C993       C1001   1.387       .  A
C993       C1009   1.413       .  A
C994       C1010   1.394       .  A
C994       C1002   1.382       .  A
C995       C1003   1.390       .  A
C995       C1012   1.446       .  A
C996       C1011   1.444       .  A
C996       C1004   1.389       .  A
C997       C1009   1.393       .  A
C997       C1005   1.381       .  A
C998       C1012   1.391       .  A
C998       C1006   1.394       .  A
C999       C1007   1.379       .  A
C999       C1010   1.395       .  A
C1000      C1008   1.389       .  A
C1000      C1011   1.415       .  A
C1001      C1002   1.372       .  A
C1001      H1013   1.072       .  S
C1002      H1014   1.082       .  S
C1003      C1004   1.407       .  A
C1003      H1015   1.082   1_455  S
C1004      H1016   1.082       .  S
C1005      C1006   1.382       .  A
C1005      H1017   1.082       .  S
C1006      H1018   1.081       .  S
C1007      C1008   1.363       .  A
C1007      H1019   1.081       .  S
C1008      H1020   1.076       .  S
C1009      C2973   1.469       .  S
C1010      C3096   1.463       .  S
C1011      C1994   1.524       .  S
C1023      C2949   1.484       .  S
C1023      N1024   1.357       .  A
C1023      N1028   1.361       .  A
N1024      C1025   1.358       .  A
C1025      C2937   1.478       .  S
C1025      N1026   1.350       .  A
N1026      C1027   1.352       .  A
C1027      C2925   1.466       .  S
C1027      N1028   1.350       .  A
N1029      C1034   1.344       .  A
N1029      C1033   1.340       .  A
N1029      H1061   1.041       .  S
N1030      C1037   1.351       .  A
N1030      C1038   1.352       .  A
N1031      C1036   1.367       .  A
N1031      C1035   1.364       .  A
N1031      H1062   1.043       .  S
N1032      C1039   1.349       .  A
N1032      C1040   1.347       .  A
C1033      C1041   1.386       .  A
C1033      C1049   1.396       .  A
C1034      C1050   1.403       .  A
C1034      C1042   1.387       .  A
C1035      C1043   1.392       .  A
C1035      C1052   1.451       .  A
C1036      C1051   1.444       .  A
C1036      C1044   1.387       .  A
C1037      C1049   1.422       .  A
C1037      C1045   1.387       .  A
C1038      C1052   1.406       .  A
C1038      C1046   1.382       .  A
C1039      C1047   1.386       .  A
C1039      C1050   1.409       .  A
C1040      C1048   1.387       .  A
C1040      C1051   1.401       .  A
C1041      C1042   1.382       .  A
C1041      H1053   1.082       .  S
C1042      H1054   1.082       .  S
C1043      C1044   1.403       .  A
C1043      H1055   1.082       .  S
C1044      H1056   1.082       .  S
C1045      C1046   1.375       .  A
C1045      H1057   1.078       .  S
C1046      H1058   1.081       .  S
C1047      C1048   1.369       .  A
C1047      H1059   1.081       .  S
C1048      H1060   1.082       .  S
C1049      C2913   1.476       .  S
C1050      C2928   1.482       .  S
C1063      C2877   1.473       .  S
C1063      N1064   1.356   1_554  A
C1063      N1068   1.358       .  A
N1064      C1065   1.360       .  A
C1065      C2901   1.463       .  S
C1065      N1066   1.350       .  A
N1066      C1067   1.360   1_556  A
C1067      C2892   1.487       .  S
C1067      N1068   1.358       .  A
C1069      C2853   1.469       .  S
C1069      N1070   1.355       .  A
C1069      N1074   1.370       .  A
N1070      C1071   1.349       .  A
C1071      C2865   1.481       .  S
C1071      N1072   1.344       .  A
N1072      C1073   1.348       .  A
C1073      C2844   1.485       .  S
C1073      N1074   1.366       .  A
C1075      C2916   1.462       .  S
C1075      N1076   1.346       .  A
C1075      N1080   1.352       .  A
N1076      C1077   1.358       .  A
C1077      C2820   1.470       .  S
C1077      N1078   1.353       .  A
N1078      C1079   1.361       .  A
C1079      C2832   1.478       .  S
C1079      N1080   1.353       .  A
N1081      C1086   1.344       .  A
N1081      C1085   1.346       .  A
N1081      H1113   1.044       .  S
N1082      C1089   1.350       .  A
N1082      C1090   1.345       .  A
N1083      C1088   1.372       .  A
N1083      C1087   1.366       .  A
N1083      H1114   1.043       .  S
N1084      C1091   1.344       .  A
N1084      C1092   1.343       .  A
C1085      C1093   1.387       .  A
C1085      C1101   1.403       .  A
C1086      C1102   1.403       .  A
C1086      C1094   1.388       .  A
C1087      C1095   1.393       .  A
C1087      C1104   1.462       .  A
C1088      C1103   1.465       .  A
C1088      C1096   1.391       .  A
C1089      C1101   1.388       .  A
C1089      C1097   1.374   1_554  A
C1090      C1104   1.407       .  A
C1090      C1098   1.385   1_554  A
C1091      C1099   1.375       .  A
C1091      C1102   1.392       .  A
C1092      C1100   1.378       .  A
C1092      C1103   1.405       .  A
C1093      C1094   1.378       .  A
C1093      H1105   1.082       .  S
C1094      H1106   1.082       .  S
C1095      C1096   1.417       .  A
C1095      H1107   1.082       .  S
C1096      H1108   1.082       .  S
C1097      C1098   1.370       .  A
C1097      H1109   1.081       .  S
C1098      H1110   1.072       .  S
C1099      C1100   1.371       .  A
C1099      H1111   1.078       .  S
C1100      H1112   1.072       .  S
C1101      C2841   1.478       .  S
C1102      C2817   1.475       .  S
N1115      C1120   1.343       .  A
N1115      C1119   1.345       .  A
N1115      H1147   1.042       .  S
N1116      C1123   1.354       .  A
N1116      C1124   1.354       .  A
N1117      C1122   1.371       .  A
N1117      C1121   1.361       .  A
N1117      H1148   1.039       .  S
N1118      C1125   1.341       .  A
N1118      C1126   1.338       .  A
C1119      C1127   1.386       .  A
C1119      C1135   1.402       .  A
C1120      C1136   1.408       .  A
C1120      C1128   1.388       .  A
C1121      C1129   1.391       .  A
C1121      C1138   1.453       .  A
C1122      C1137   1.458       .  A
C1122      C1130   1.390       .  A
C1123      C1135   1.408       .  A
C1123      C1131   1.378       .  A
C1124      C1138   1.424       .  A
C1124      C1132   1.396       .  A
C1125      C1133   1.383       .  A
C1125      C1136   1.391       .  A
C1126      C1134   1.391       .  A
C1126      C1137   1.399       .  A
C1127      C1128   1.388       .  A
C1127      H1139   1.082       .  S
C1128      H1140   1.082       .  S
C1129      C1130   1.412       .  A
C1129      H1141   1.082       .  S
C1130      H1142   1.082       .  S
C1131      C1132   1.357       .  A
C1131      H1143   1.081       .  S
C1132      H1144   1.076       .  S
C1133      C1134   1.369       .  A
C1133      H1145   1.083       .  S
C1134      H1146   1.080       .  S
C1135      C2880   1.485       .  S
C1136      C2829   1.466       .  S
N1149      C1154   1.342       .  A
N1149      C1153   1.353       .  A
N1149      H1181   1.042       .  S
N1150      C1157   1.340       .  A
N1150      C1158   1.330       .  A
N1151      C1156   1.359       .  A
N1151      C1155   1.367       .  A
N1151      H1182   1.037       .  S
N1152      C1159   1.350       .  A
N1152      C1160   1.360       .  A
C1153      C1161   1.388       .  A
C1153      C1169   1.415       .  A
C1154      C1170   1.400       .  A
C1154      C1162   1.387       .  A
C1155      C1163   1.389       .  A
C1155      C1172   1.451       .  A
C1156      C1171   1.451       .  A
C1156      C1164   1.390       .  A
C1157      C1169   1.394       .  A
C1157      C1165   1.382       .  A
C1158      C1172   1.395       .  A
C1158      C1166   1.391       .  A
C1159      C1167   1.378       .  A
C1159      C1170   1.415       .  A
C1160      C1168   1.383       .  A
C1160      C1171   1.428       .  A
C1161      C1162   1.372       .  A
C1161      H1173   1.080       .  S
C1162      H1174   1.083       .  S
C1163      C1164   1.409       .  A
C1163      H1175   1.082       .  S
C1164      H1176   1.082       .  S
C1165      C1166   1.380       .  A
C1165      H1177   1.081       .  S
C1166      H1178   1.082       .  S
C1167      C1168   1.374       .  A
C1167      H1179   1.082       .  S
C1168      H1180   1.076       .  S
C1169      C2904   1.483       .  S
C1170      C2868   1.471       .  S
C1172      C1265   1.529       .  S
N1183      C1188   1.352       .  A
N1183      C1187   1.347       .  A
N1183      H1215   1.041       .  S
N1184      C1191   1.353       .  A
N1184      C1192   1.358       .  A
N1185      C1190   1.368       .  A
N1185      C1189   1.365       .  A
N1185      H1216   1.040       .  S
N1186      C1193   1.349       .  A
N1186      C1194   1.343       .  A
C1187      C1195   1.384       .  A
C1187      C1203   1.400       .  A
C1188      C1204   1.412       .  A
C1188      C1196   1.389       .  A
C1189      C1197   1.389       .  A
C1189      C1206   1.451       .  A
C1190      C1205   1.451       .  A
C1190      C1198   1.389       .  A
C1191      C1203   1.413       .  A
C1191      C1199   1.382       .  A
C1192      C1206   1.425       .  A
C1192      C1200   1.392       .  A
C1193      C1201   1.378       .  A
C1193      C1204   1.400       .  A
C1194      C1202   1.390       .  A
C1194      C1205   1.417       .  A
C1195      C1196   1.371       .  A
C1195      H1207   1.082       .  S
C1196      H1208   1.081       .  S
C1197      C1198   1.405       .  A
C1197      H1209   1.082       .  S
C1198      H1210   1.082       .  S
C1199      C1200   1.359       .  A
C1199      H1211   1.082       .  S
C1200      H1212   1.080       .  S
C1201      C1202   1.369       .  A
C1201      H1213   1.082       .  S
C1202      H1214   1.071       .  S
C1203      C2940   1.479       .  S
C1204      C2889   1.488       .  S
N1217      C1222   1.352       .  A
N1217      C1221   1.354       .  A
N1217      H1249   1.032       .  S
N1218      C1225   1.334       .  A
N1218      C1226   1.334       .  A
N1219      C1224   1.356       .  A
N1219      C1223   1.374       .  A
N1219      H1250   1.043       .  S
N1220      C1227   1.354       .  A
N1220      C1228   1.355       .  A
C1221      C1229   1.386       .  A
C1221      C1237   1.423       .  A
C1222      C1238   1.423       .  A
C1222      C1230   1.389       .  A
C1223      C1231   1.387       .  A
C1223      C1240   1.447       .  A
C1224      C1239   1.430       .  A
C1224      C1232   1.388       .  A
C1225      C1237   1.400       .  A
C1225      C1233   1.386       .  A
C1226      C1240   1.395       .  A
C1226      C1234   1.386       .  A
C1227      C1235   1.384       .  A
C1227      C1238   1.425       .  A
C1228      C1236   1.380       .  A
C1228      C1239   1.410       .  A
C1229      C1230   1.382       .  A
C1229      H1241   1.083       .  S
C1230      H1242   1.081       .  S
C1231      C1232   1.395       .  A
C1231      H1243   1.080   1_565  S
C1232      H1244   1.082       .  S
C1233      C1234   1.381       .  A
C1233      H1245   1.079       .  S
C1234      H1246   1.083       .  S
C1235      C1236   1.363       .  A
C1235      H1247   1.079       .  S
C1236      H1248   1.079       .  S
C1237      C2952   1.481       .  S
C1238      C2856   1.494       .  S
O1251     Ni1257   1.971       .  S
O1251      C1272   1.296       .  A
O1252     Ni1275   1.979       .  S
O1252      C1261   1.304       .  A
O1253     Ni1257   1.883       .  S
O1253     Ni1275   1.889       .  S
O1253     Ni1269   1.879       .  S
O1253      H1276   0.966       .  S
C1254      O1271   1.311       .  A
C1254      O1263   1.300       .  A
C1254      C1873   1.522       .  S
O1255     Ni1274   1.928       .  S
O1255      C1261   1.285       .  A
O1256     Ni1274   1.922       .  S
O1256      C1258   1.270       .  A
Ni1257     O1260   1.976       .  S
Ni1257     O1262   1.973       .  S
C1258      O1268   1.277       .  A
C1258      C1679   1.535       .  S
O1259     Ni1275   1.959       .  S
O1259      C1265   1.312       .  A
O1260      C1265   1.298       .  A
O1262      C1264   1.277       .  A
O1263     Ni1274   1.962       .  S
C1264      O1270   1.266       .  A
H1266      O1267   0.966       .  S
O1267     Ni1275   1.874       .  S
O1267     Ni1269   1.875       .  S
O1267     Ni1274   1.851       .  S
O1268     Ni1269   1.987       .  S
Ni1269     O1273   1.967       .  S
Ni1269     O1271   1.974       .  S
O1270     Ni1275   1.972       .  S
C1272      O1273   1.309       .  A
C1272      C1418   1.542       .  S
O1277     Ni1283   1.955   1_655  S
O1277      C1298   1.293   1_655  A
O1278     Ni1301   1.937       .  S
O1278      C1287   1.298       .  A
O1279     Ni1283   1.880   1_655  S
O1279     Ni1301   1.860   1_565  S
O1279     Ni1295   1.887   1_665  S
O1279      H1302   0.968       .  S
C1280      O1297   1.327       .  A
C1280      O1289   1.304       .  A
C1280      C2087   1.561       .  S
O1281     Ni1300   1.961       .  S
O1281      C1287   1.293       .  A
O1282     Ni1300   1.953       .  S
O1282      C1284   1.277       .  A
Ni1283     O1286   1.989   1_455  S
Ni1283     O1288   1.969       .  S
C1284      O1294   1.272       .  A
C1284      C1975   1.560       .  S
O1285     Ni1301   1.970   1_565  S
O1285      C1291   1.306       .  A
O1286      C1291   1.301       .  A
C1287      C1485   1.523       .  S
O1288      C1290   1.281       .  A
O1289     Ni1300   1.983   1_455  S
C1290      O1296   1.274       .  A
C1290      C1713   1.559       .  S
H1292      O1293   0.967       .  S
O1293     Ni1301   1.882   1_455  S
O1293     Ni1295   1.879       .  S
O1293     Ni1300   1.882   1_455  S
O1294     Ni1295   1.991   1_655  S
Ni1295     O1299   1.970   1_545  S
Ni1295     O1297   2.024       .  S
O1296     Ni1301   1.993   1_465  S
C1298      O1299   1.314       .  A
C1303      C2796   1.487       .  S
C1303      N1304   1.370       .  A
C1303      N1308   1.353   1_565  A
N1304      C1305   1.376       .  A
C1305      C2805   1.492       .  S
C1305      N1306   1.353       .  A
N1306      C1307   1.344   1_565  A
C1307      C2781   1.464       .  S
C1307      N1308   1.342       .  A
C1309      C2748   1.467       .  S
C1309      N1310   1.351       .  A
C1309      N1314   1.353       .  A
N1310      C1311   1.356       .  A
C1311      C2769   1.473       .  S
C1311      N1312   1.360       .  A
N1312      C1313   1.362       .  A
C1313      C2760   1.487       .  S
C1313      N1314   1.354       .  A
C1315      C2712   1.478       .  S
C1315      N1316   1.357       .  A
C1315      N1320   1.363       .  A
N1316      C1317   1.355       .  A
C1317      C2733   1.476       .  S
C1317      N1318   1.348       .  A
N1318      C1319   1.349       .  A
C1319      C2724   1.462       .  S
C1319      N1320   1.357       .  A
N1321      C1326   1.352       .  A
N1321      C1325   1.343       .  A
N1321      H1353   1.031       .  S
N1322      C1329   1.354       .  A
N1322      C1330   1.357       .  A
N1323      C1328   1.376       .  A
N1323      C1327   1.372       .  A
N1323      H1354   1.034       .  S
N1324      C1331   1.340       .  A
N1324      C1332   1.337       .  A
C1325      C1333   1.388       .  A
C1325      C1341   1.408       .  A
C1326      C1342   1.412       .  A
C1326      C1334   1.385       .  A
C1327      C1335   1.389       .  A
C1327      C1344   1.465       .  A
C1328      C1343   1.468       .  A
C1328      C1336   1.389       .  A
C1329      C1341   1.413       .  A
C1329      C1337   1.377       .  A
C1330      C1344   1.432       .  A
C1330      C1338   1.394       .  A
C1331      C1339   1.385       .  A
C1331      C1342   1.398       .  A
C1332      C1340   1.389       .  A
C1332      C1343   1.393       .  A
C1333      C1334   1.376       .  A
C1333      H1345   1.081       .  S
C1334      H1346   1.082       .  S
C1335      C1336   1.404       .  A
C1335      H1347   1.082       .  S
C1336      H1348   1.082       .  S
C1337      C1338   1.367       .  A
C1337      H1349   1.083       .  S
C1338      H1350   1.077       .  S
C1339      C1340   1.373       .  A
C1339      H1351   1.082       .  S
C1340      H1352   1.083       .  S
C1341      C2745   1.477       .  S
C1342      C2721   1.471       .  S
N1355      C1360   1.345       .  A
N1355      C1359   1.355       .  A
N1355      H1387   1.040       .  S
N1356      C1363   1.341       .  A
N1356      C1364   1.333       .  A
N1357      C1362   1.360       .  A
N1357      C1361   1.362       .  A
N1357      H1388   1.041       .  S
N1358      C1365   1.351       .  A
N1358      C1366   1.359       .  A
C1359      C1367   1.390       .  A
C1359      C1375   1.418       .  A
C1360      C1376   1.402       .  A
C1360      C1368   1.386       .  A
C1361      C1369   1.387       .  A
C1361      C1378   1.437       .  A
C1362      C1377   1.436       .  A
C1362      C1370   1.387       .  A
C1363      C1375   1.396       .  A
C1363      C1371   1.385       .  A
C1364      C1378   1.397       .  A
C1364      C1372   1.391       .  A
C1365      C1373   1.383       .  A
C1365      C1376   1.411       .  A
C1366      C1374   1.390       .  A
C1366      C1377   1.424       .  A
C1367      C1368   1.372       .  A
C1367      H1379   1.082       .  S
C1368      H1380   1.082       .  S
C1369      C1370   1.400       .  A
C1369      H1381   1.080       .  S
C1370      H1382   1.082       .  S
C1371      C1372   1.375       .  A
C1371      H1383   1.083       .  S
C1372      H1384   1.083       .  S
C1373      C1374   1.363       .  A
C1373      H1385   1.083       .  S
C1374      H1386   1.078       .  S
C1375      C2709   1.479       .  S
C1376      C2784   1.468       .  S
C1389      C2697   1.455       .  S
C1389      N1390   1.347       .  A
C1389      N1394   1.362       .  A
N1390      C1391   1.349       .  A
C1391      C2688   1.457       .  S
C1391      N1392   1.350       .  A
N1392      C1393   1.360       .  A
C1393      C2673   1.468       .  S
C1393      N1394   1.359       .  A
N1395      C1400   1.342       .  A
N1395      C1399   1.343       .  A
N1395      H1427   1.044       .  S
N1396      C1403   1.345       .  A
N1396      C1404   1.336       .  A
N1397      C1402   1.367       .  A
N1397      C1401   1.371       .  A
N1397      H1428   1.042       .  S
N1398      C1405   1.351       .  A
N1398      C1406   1.353       .  A
C1399      C1407   1.383       .  A
C1399      C1415   1.404       .  A
C1400      C1416   1.392       .  A
C1400      C1408   1.385       .  A
C1401      C1409   1.389       .  A
C1401      C1418   1.456       .  A
C1402      C1417   1.458       .  A
C1402      C1410   1.391       .  A
C1403      C1415   1.400       .  A
C1403      C1411   1.378       .  A
C1404      C1418   1.403       .  A
C1404      C1412   1.392       .  A
C1405      C1413   1.377       .  A
C1405      C1416   1.411       .  A
C1406      C1414   1.400       .  A
C1406      C1417   1.442       .  A
C1407      C1408   1.376       .  A
C1407      H1419   1.073       .  S
C1408      H1420   1.082       .  S
C1409      C1410   1.408       .  A
C1409      H1421   1.082       .  S
C1410      H1422   1.082       .  S
C1411      C1412   1.386       .  A
C1411      H1423   1.080       .  S
C1412      H1424   1.082       .  S
C1413      C1414   1.372       .  A
C1413      H1425   1.083       .  S
C1414      H1426   1.077       .  S
C1415      C2676   1.486       .  S
C1416      C2736   1.475       .  S
N1429      C1434   1.352       .  A
N1429      C1433   1.359       .  A
N1429      H1461   1.040       .  S
N1430      C1437   1.335       .  A
N1430      C1438   1.333       .  A
N1431      C1436   1.353       .  A
N1431      C1435   1.369       .  A
N1431      H1462   1.040       .  S
N1432      C1439   1.351       .  A
N1432      C1440   1.357       .  A
C1433      C1441   1.390       .  A
C1433      C1449   1.428       .  A
C1434      C1450   1.412       .  A
C1434      C1442   1.385       .  A
C1435      C1443   1.387       .  A
C1435      C1452   1.443       .  A
C1436      C1451   1.440       .  A
C1436      C1444   1.389       .  A
C1437      C1449   1.393       .  A
C1437      C1445   1.386       .  A
C1438      C1452   1.400       .  A
C1438      C1446   1.389       .  A
C1439      C1447   1.385       .  A
C1439      C1450   1.414       .  A
C1440      C1448   1.388       .  A
C1440      C1451   1.419       .  A
C1441      C1442   1.371       .  A
C1441      H1453   1.079       .  S
C1442      H1454   1.082       .  S
C1443      C1444   1.403       .  A
C1443      H1455   1.082       .  S
C1444      H1456   1.079       .  S
C1445      C1446   1.380       .  A
C1445      H1457   1.081       .  S
C1446      H1458   1.083       .  S
C1447      C1448   1.367       .  A
C1447      H1459   1.083       .  S
C1448      H1460   1.079       .  S
C1449      C2808   1.486       .  S
C1450      C2757   1.482       .  S
N1463      C1468   1.338       .  A
N1463      C1467   1.348       .  A
N1463      H1495   1.039       .  S
N1464      C1471   1.348       .  A
N1464      C1472   1.346       .  A
N1465      C1470   1.361       .  A
N1465      C1469   1.362       .  A
N1465      H1496   1.040       .  S
N1466      C1473   1.356       .  A
N1466      C1474   1.352       .  A
C1467      C1475   1.381       .  A
C1467      C1483   1.407       .  A
C1468      C1484   1.402       .  A
C1468      C1476   1.385       .  A
C1469      C1477   1.389       .  A
C1469      C1486   1.443       .  A
C1470      C1485   1.447       .  A
C1470      C1478   1.392   1_655  A
C1471      C1483   1.409       .  A
C1471      C1479   1.389       .  A
C1472      C1486   1.384       .  A
C1472      C1480   1.375       .  A
C1473      C1481   1.384       .  A
C1473      C1484   1.410       .  A
C1474      C1482   1.390       .  A
C1474      C1485   1.419       .  A
C1475      C1476   1.384       .  A
C1475      H1487   1.082       .  S
C1476      H1488   1.076       .  S
C1477      C1478   1.411   1_655  A
C1477      H1489   1.082   1_655  S
C1478      H1490   1.082       .  S
C1479      C1480   1.366       .  A
C1479      H1491   1.080       .  S
C1480      H1492   1.076       .  S
C1481      C1482   1.363       .  A
C1481      H1493   1.083       .  S
C1482      H1494   1.083       .  S
C1483      C2700   1.498       .  S
C1484      C2772   1.489       .  S
C1486      C2000   1.508       .  S
N1497      C1502   1.349       .  A
N1497      C1501   1.350       .  A
N1497      H1529   1.042       .  S
N1498      C1505   1.339       .  A
N1498      C1506   1.333       .  A
N1499      C1504   1.352       .  A
N1499      C1503   1.365       .  A
N1499      H1530   1.042       .  S
N1500      C1507   1.358       .  A
N1500      C1508   1.358       .  A
C1501      C1509   1.386       .  A
C1501      C1517   1.416       .  A
C1502      C1518   1.416       .  A
C1502      C1510   1.388       .  A
C1503      C1511   1.387       .  A
C1503      C1520   1.437       .  A
C1504      C1519   1.437       .  A
C1504      C1512   1.391       .  A
C1505      C1517   1.398       .  A
C1505      C1513   1.387       .  A
C1506      C1520   1.389       .  A
C1506      C1514   1.381       .  A
C1507      C1515   1.379       .  A
C1507      C1518   1.423       .  A
C1508      C1516   1.388       .  A
C1508      C1519   1.425       .  A
C1509      C1510   1.383       .  A
C1509      H1521   1.082       .  S
C1510      H1522   1.082       .  S
C1511      C1512   1.403       .  A
C1511      H1523   1.082   1_556  S
C1512      H1524   1.081   1_556  S
C1513      C1514   1.385       .  A
C1513      H1525   1.081       .  S
C1514      H1526   1.080       .  S
C1515      C1516   1.362       .  A
C1515      H1527   1.077       .  S
C1516      H1528   1.079       .  S
C1517      C2685   1.488       .  S
C1518      C2793   1.511       .  S
C1531      C2661   1.495       .  S
C1531      N1532   1.362       .  A
C1531      N1536   1.357   1_655  A
N1532      C1533   1.367       .  A
C1533      C2649   1.483       .  S
C1533      N1534   1.356       .  A
N1534      C1535   1.357   1_655  A
C1535      C2637   1.478       .  S
C1535      N1536   1.351       .  A
N1537      C1542   1.353       .  A
N1537      C1541   1.344       .  A
N1537      H1569   1.039       .  S
N1538      C1545   1.353       .  A
N1538      C1546   1.365       .  A
N1539      C1544   1.375       .  A
N1539      C1543   1.372       .  A
N1539      H1570   1.037       .  S
N1540      C1547   1.335       .  A
N1540      C1548   1.339       .  A
C1541      C1549   1.387       .  A
C1541      C1557   1.405       .  A
C1542      C1558   1.410       .  A
C1542      C1550   1.386       .  A
C1543      C1551   1.395       .  A
C1543      C1560   1.478       .  A
C1544      C1559   1.471       .  A
C1544      C1552   1.390       .  A
C1545      C1557   1.411       .  A
C1545      C1553   1.364       .  A
C1546      C1560   1.436       .  A
C1546      C1554   1.389       .  A
C1547      C1555   1.388       .  A
C1547      C1558   1.402       .  A
C1548      C1556   1.386       .  A
C1548      C1559   1.407       .  A
C1549      C1550   1.376       .  A
C1549      H1561   1.082       .  S
C1550      H1562   1.082       .  S
C1551      C1552   1.413       .  A
C1551      H1563   1.081       .  S
C1552      H1564   1.082       .  S
C1553      C1554   1.374       .  A
C1553      H1565   1.075       .  S
C1554      H1566   1.075       .  S
C1555      C1556   1.383       .  A
C1555      H1567   1.082       .  S
C1556      H1568   1.082       .  S
C1557      C2628   1.486       .  S
C1558      C2640   1.487       .  S
C1571      C2592   1.490       .  S
C1571      N1572   1.363       .  A
C1571      N1576   1.365       .  A
N1572      C1573   1.356       .  A
C1573      C2601   1.461       .  S
C1573      N1574   1.348       .  A
N1574      C1575   1.347       .  A
C1575      C2613   1.487       .  S
C1575      N1576   1.360       .  A
C1577      C2577   1.474       .  S
C1577      N1578   1.362       .  A
C1577      N1582   1.367       .  A
N1578      C1579   1.353       .  A
C1579      C2565   1.461       .  S
C1579      N1580   1.349       .  A
N1580      C1581   1.346       .  A
C1581      C2625   1.471       .  S
C1581      N1582   1.360       .  A
N1583      C1588   1.347       .  A
N1583      C1587   1.343       .  A
N1583      H1615   1.032       .  S
N1584      C1591   1.352       .  A
N1584      C1592   1.343       .  A
N1585      C1590   1.369       .  A
N1585      C1589   1.368       .  A
N1585      H1616   1.037       .  S
N1586      C1593   1.358       .  A
N1586      C1594   1.351       .  A
C1587      C1595   1.383       .  A
C1587      C1603   1.404       .  A
C1588      C1604   1.419       .  A
C1588      C1596   1.390       .  A
C1589      C1597   1.391       .  A
C1589      C1606   1.459       .  A
C1590      C1605   1.453       .  A
C1590      C1598   1.389       .  A
C1591      C1603   1.392       .  A
C1591      C1599   1.374       .  A
C1592      C1606   1.423       .  A
C1592      C1600   1.394       .  A
C1593      C1601   1.385       .  A
C1593      C1604   1.421       .  A
C1594      C1602   1.387       .  A
C1594      C1605   1.420       .  A
C1595      C1596   1.383       .  A
C1595      H1607   1.083       .  S
C1596      H1608   1.082       .  S
C1597      C1598   1.408       .  A
C1597      H1609   1.082       .  S
C1598      H1610   1.082       .  S
C1599      C1600   1.357       .  A
C1599      H1611   1.077       .  S
C1600      H1612   1.075       .  S
C1601      C1602   1.371       .  A
C1601      H1613   1.082       .  S
C1602      H1614   1.082       .  S
C1603      C2568   1.497       .  S
C1604      C2589   1.502       .  S
C1617      C2556   1.466       .  S
C1617      N1618   1.361       .  A
C1617      N1622   1.360       .  A
N1618      C1619   1.344       .  A
C1619      C2541   1.452   1_655  S
C1619      N1620   1.341       .  A
N1620      C1621   1.346       .  A
C1621      C2529   1.472       .  S
C1621      N1622   1.358       .  A
N1623      C1628   1.336       .  A
N1623      C1627   1.342       .  A
N1623      H1655   1.041       .  S
N1624      C1631   1.343       .  A
N1624      C1632   1.338       .  A
N1625      C1630   1.377       .  A
N1625      C1629   1.387       .  A
N1625      H1656   1.040       .  S
N1626      C1633   1.363       .  A
N1626      C1634   1.362       .  A
C1627      C1635   1.385       .  A
C1627      C1643   1.397       .  A
C1628      C1644   1.389       .  A
C1628      C1636   1.387       .  A
C1629      C1637   1.388       .  A
C1629      C1646   1.479       .  A
C1630      C1645   1.481       .  A
C1630      C1638   1.393       .  A
C1631      C1643   1.401       .  A
C1631      C1639   1.383       .  A
C1632      C1646   1.400       .  A
C1632      C1640   1.389       .  A
C1633      C1641   1.372       .  A
C1633      C1644   1.417       .  A
C1634      C1642   1.403       .  A
C1634      C1645   1.449       .  A
C1635      C1636   1.379       .  A
C1635      H1647   1.082       .  S
C1636      H1648   1.082       .  S
C1637      C1638   1.413       .  A
C1637      H1649   1.082       .  S
C1638      H1650   1.082       .  S
C1639      C1640   1.374       .  A
C1639      H1651   1.082       .  S
C1640      H1652   1.079       .  S
C1641      C1642   1.358       .  A
C1641      H1653   1.083       .  S
C1642      H1654   1.073       .  S
C1643      C2544   1.471       .  S
C1644      C2580   1.487       .  S
C1646      C1990   1.568       .  S
N1657      C1662   1.341       .  A
N1657      C1661   1.355       .  A
N1657      H1689   1.040       .  S
N1658      C1665   1.337       .  A
N1658      C1666   1.339       .  A
N1659      C1664   1.361       .  A
N1659      C1663   1.359       .  A
N1659      H1690   1.037       .  S
N1660      C1667   1.348       .  A
N1660      C1668   1.356       .  A
C1661      C1669   1.393       .  A
C1661      C1677   1.419       .  A
C1662      C1678   1.394       .  A
C1662      C1670   1.382       .  A
C1663      C1671   1.391       .  A
C1663      C1680   1.447       .  A
C1664      C1679   1.446       .  A
C1664      C1672   1.389       .  A
C1665      C1677   1.402       .  A
C1665      C1673   1.391       .  A
C1666      C1680   1.406       .  A
C1666      C1674   1.386       .  A
C1667      C1675   1.380       .  A
C1667      C1678   1.397       .  A
C1668      C1676   1.382       .  A
C1668      C1679   1.426       .  A
C1669      C1670   1.369       .  A
C1669      H1681   1.079       .  S
C1670      H1682   1.083       .  S
C1671      C1672   1.409       .  A
C1671      H1683   1.082       .  S
C1672      H1684   1.082       .  S
C1673      C1674   1.386       .  A
C1673      H1685   1.082       .  S
C1674      H1686   1.082       .  S
C1675      C1676   1.361       .  A
C1675      H1687   1.082       .  S
C1676      H1688   1.066       .  S
C1677      C2652   1.499       .  S
C1678      C2532   1.457       .  S
N1691      C1696   1.347       .  A
N1691      C1695   1.346       .  A
N1691      H1723   1.042       .  S
N1692      C1699   1.350       .  A
N1692      C1700   1.345       .  A
N1693      C1698   1.377       .  A
N1693      C1697   1.375       .  A
N1693      H1724   1.042       .  S
N1694      C1701   1.351       .  A
N1694      C1702   1.347       .  A
C1695      C1703   1.389       .  A
C1695      C1711   1.408       .  A
C1696      C1712   1.405       .  A
C1696      C1704   1.385       .  A
C1697      C1705   1.392       .  A
C1697      C1714   1.472       .  A
C1698      C1713   1.472       .  A
C1698      C1706   1.391       .  A
C1699      C1711   1.395       .  A
C1699      C1707   1.376       .  A
C1700      C1714   1.409       .  A
C1700      C1708   1.389       .  A
C1701      C1709   1.379   1_455  A
C1701      C1712   1.397       .  A
C1702      C1710   1.379   1_455  A
C1702      C1713   1.409       .  A
C1703      C1704   1.378       .  A
C1703      H1715   1.081       .  S
C1704      H1716   1.082       .  S
C1705      C1706   1.415       .  A
C1705      H1717   1.082       .  S
C1706      H1718   1.082       .  S
C1707      C1708   1.370       .  A
C1707      H1719   1.080       .  S
C1708      H1720   1.077       .  S
C1709      C1710   1.368       .  A
C1709      H1721   1.081       .  S
C1710      H1722   1.068       .  S
C1711      C2616   1.481       .  S
C1712      C2664   1.482       .  S
N1725      C1730   1.354       .  A
N1725      C1729   1.354       .  A
N1725      H1757   1.044       .  S
N1726      C1733   1.349       .  A
N1726      C1734   1.354       .  A
N1727      C1732   1.361       .  A
N1727      C1731   1.348       .  A
N1727      H1758   1.034       .  S
N1728      C1735   1.331       .  A
N1728      C1736   1.331       .  A
C1729      C1737   1.389       .  A
C1729      C1745   1.422       .  A
C1730      C1746   1.424       .  A
C1730      C1738   1.386       .  A
C1731      C1739   1.387       .  A
C1731      C1748   1.436       .  A
C1732      C1747   1.440       .  A
C1732      C1740   1.389   1_556  A
C1733      C1745   1.408       .  A
C1733      C1741   1.383       .  A
C1734      C1748   1.424       .  A
C1734      C1742   1.392       .  A
C1735      C1743   1.386       .  A
C1735      C1746   1.394       .  A
C1736      C1744   1.384       .  A
C1736      C1747   1.389       .  A
C1737      C1738   1.383       .  A
C1737      H1749   1.082       .  S
C1738      H1750   1.079       .  S
C1739      C1740   1.408   1_556  A
C1739      H1751   1.082   1_556  S
C1740      H1752   1.082       .  S
C1741      C1742   1.375       .  A
C1741      H1753   1.083       .  S
C1742      H1754   1.081       .  S
C1743      C1744   1.375       .  A
C1743      H1755   1.076   1_455  S
C1744      H1756   1.083       .  S
C1745      C2604   1.507       .  S
C1746      C2553   1.477   1_455  S
C1759      C2505   1.449       .  S
C1759      N1760   1.354       .  A
C1759      N1764   1.355       .  A
N1760      C1761   1.358       .  A
C1761      C2496   1.485       .  S
C1761      N1762   1.356       .  A
N1762      C1763   1.356       .  A
C1763      C2517   1.456       .  S
C1763      N1764   1.347       .  A
N1765      C1770   1.345       .  A
N1765      C1769   1.346       .  A
N1765      H1797   1.045       .  S
N1766      C1773   1.347       .  A
N1766      C1774   1.344       .  A
N1767      C1772   1.358       .  A
N1767      C1771   1.365       .  A
N1767      H1798   1.040       .  S
N1768      C1775   1.353       .  A
N1768      C1776   1.346       .  A
C1769      C1777   1.387       .  A
C1769      C1785   1.404       .  A
C1770      C1786   1.401       .  A
C1770      C1778   1.387       .  A
C1771      C1779   1.389       .  A
C1771      C1788   1.443       .  A
C1772      C1787   1.442       .  A
C1772      C1780   1.391       .  A
C1773      C1785   1.393       .  A
C1773      C1781   1.375       .  A
C1774      C1788   1.410       .  A
C1774      C1782   1.391       .  A
C1775      C1783   1.376       .  A
C1775      C1786   1.394       .  A
C1776      C1784   1.395       .  A
C1776      C1787   1.418       .  A
C1777      C1778   1.376       .  A
C1777      H1789   1.082       .  S
C1778      H1790   1.082       .  S
C1779      C1780   1.405       .  A
C1779      H1791   1.082       .  S
C1780      H1792   1.082       .  S
C1781      C1782   1.366       .  A
C1781      H1793   1.080       .  S
C1782      H1794   1.075       .  S
C1783      C1784   1.362       .  A
C1783      H1795   1.083       .  S
C1784      H1796   1.078       .  S
C1785      C2508   1.484       .  S
C1786      C2481   1.477       .  S
C1799      C2457   1.460       .  S
C1799      N1800   1.352       .  A
C1799      N1804   1.352       .  A
N1800      C1801   1.361       .  A
C1801      C2469   1.469       .  S
C1801      N1802   1.354       .  A
N1802      C1803   1.357       .  A
C1803      C2484   1.479       .  S
C1803      N1804   1.352       .  A
C1805      C2436   1.450       .  S
C1805      N1806   1.345   1_455  A
C1805      N1810   1.348       .  A
N1806      C1807   1.343       .  A
C1807      C2421   1.462       .  S
C1807      N1808   1.363   1_655  A
N1808      C1809   1.363       .  A
C1809      C2445   1.493       .  S
C1809      N1810   1.363       .  A
C1811      C2397   1.467   1_455  S
C1811      N1812   1.352       .  A
C1811      N1816   1.353       .  A
N1812      C1813   1.359       .  A
C1813      C2409   1.469       .  S
C1813      N1814   1.355       .  A
N1814      C1815   1.358       .  A
C1815      C2385   1.482   1_455  S
C1815      N1816   1.349       .  A
N1817      C1822   1.346       .  A
N1817      C1821   1.345       .  A
N1817      H1849   1.044       .  S
N1818      C1825   1.349       .  A
N1818      C1826   1.345       .  A
N1819      C1824   1.375       .  A
N1819      C1823   1.373       .  A
N1819      H1850   1.042       .  S
N1820      C1827   1.351       .  A
N1820      C1828   1.346       .  A
C1821      C1829   1.386       .  A
C1821      C1837   1.400       .  A
C1822      C1838   1.406       .  A
C1822      C1830   1.389       .  A
C1823      C1831   1.391       .  A
C1823      C1840   1.471       .  A
C1824      C1839   1.469       .  A
C1824      C1832   1.391       .  A
C1825      C1837   1.393       .  A
C1825      C1833   1.379       .  A
C1826      C1840   1.413       .  A
C1826      C1834   1.386       .  A
C1827      C1835   1.377       .  A
C1827      C1838   1.400       .  A
C1828      C1836   1.384       .  A
C1828      C1839   1.413       .  A
C1829      C1830   1.378       .  A
C1829      H1841   1.083       .  S
C1830      H1842   1.082       .  S
C1831      C1832   1.416       .  A
C1831      H1843   1.081       .  S
C1832      H1844   1.082       .  S
C1833      C1834   1.366       .  A
C1833      H1845   1.083       .  S
C1834      H1846   1.070       .  S
C1835      C1836   1.376       .  A
C1835      H1847   1.081       .  S
C1836      H1848   1.074       .  S
C1837      C2412   1.475       .  S
C1838      C2448   1.484       .  S
N1851      C1856   1.341       .  A
N1851      C1855   1.352       .  A
N1851      H1883   1.042       .  S
N1852      C1859   1.346       .  A
N1852      C1860   1.335       .  A
N1853      C1858   1.357       .  A
N1853      C1857   1.361       .  A
N1853      H1884   1.041       .  S
N1854      C1861   1.355       .  A
N1854      C1862   1.360       .  A
C1855      C1863   1.384       .  A
C1855      C1871   1.405       .  A
C1856      C1872   1.404       .  A
C1856      C1864   1.389       .  A
C1857      C1865   1.384       .  A
C1857      C1874   1.430       .  A
C1858      C1873   1.443       .  A
C1858      C1866   1.394       .  A
C1859      C1871   1.385       .  A
C1859      C1867   1.377       .  A
C1860      C1874   1.394       .  A
C1860      C1868   1.383       .  A
C1861      C1869   1.383       .  A
C1861      C1872   1.420       .  A
C1862      C1870   1.390       .  A
C1862      C1873   1.430       .  A
C1863      C1864   1.382       .  A
C1863      H1875   1.082       .  S
C1864      H1876   1.082       .  S
C1865      C1866   1.399       .  A
C1865      H1877   1.082       .  S
C1866      H1878   1.081       .  S
C1867      C1868   1.369       .  A
C1867      H1879   1.082       .  S
C1868      H1880   1.076       .  S
C1869      C1870   1.369       .  A
C1869      H1881   1.082       .  S
C1870      H1882   1.077       .  S
C1871      C2388   1.476       .  S
C1872      C2460   1.479       .  S
C1874      C2008   1.494       .  S
N1885      C1890   1.350       .  A
N1885      C1889   1.341       .  A
N1885      H1917   1.044       .  S
N1886      C1893   1.353       .  A
N1886      C1894   1.360       .  A
N1887      C1892   1.359       .  A
N1887      C1891   1.350       .  A
N1887      H1918   1.043       .  S
N1888      C1895   1.339       .  A
N1888      C1896   1.333       .  A
C1889      C1897   1.388       .  A
C1889      C1905   1.404       .  A
C1890      C1906   1.415       .  A
C1890      C1898   1.389       .  A
C1891      C1899   1.388       .  A
C1891      C1908   1.427       .  A
C1892      C1907   1.436       .  A
C1892      C1900   1.390       .  A
C1893      C1905   1.424       .  A
C1893      C1901   1.388       .  A
C1894      C1908   1.422       .  A
C1894      C1902   1.385       .  A
C1895      C1903   1.383       .  A
C1895      C1906   1.404       .  A
C1896      C1904   1.386       .  A
C1896      C1907   1.393       .  A
C1897      C1898   1.385       .  A
C1897      H1909   1.082       .  S
C1898      H1910   1.082       .  S
C1899      C1900   1.403       .  A
C1899      H1911   1.082   1_554  S
C1900      H1912   1.081   1_554  S
C1901      C1902   1.374       .  A
C1901      H1913   1.080       .  S
C1902      H1914   1.082       .  S
C1903      C1904   1.380       .  A
C1903      H1915   1.077       .  S
C1904      H1916   1.082       .  S
C1905      C2520   1.484       .  S
C1906      C2433   1.493       .  S
N1919      C1924   1.350       .  A
N1919      C1923   1.335       .  A
N1919      H1951   1.041       .  S
N1920      C1927   1.362       .  A
N1920      C1928   1.360       .  A
N1921      C1926   1.356       .  A
N1921      C1925   1.351       .  A
N1921      H1952   1.043       .  S
N1922      C1929   1.337       .  A
N1922      C1930   1.331       .  A
C1923      C1931   1.386       .  A
C1923      C1939   1.401       .  A
C1924      C1940   1.409       .  A
C1924      C1932   1.382       .  A
C1925      C1933   1.390       .  A
C1925      C1942   1.428       .  A
C1926      C1941   1.424       .  A
C1926      C1934   1.386       .  A
C1927      C1939   1.426       .  A
C1927      C1935   1.386       .  A
C1928      C1942   1.426       .  A
C1928      C1936   1.382       .  A
C1929      C1937   1.388       .  A
C1929      C1940   1.402       .  A
C1930      C1938   1.388       .  A
C1930      C1941   1.384       .  A
C1931      C1932   1.386       .  A
C1931      H1943   1.080       .  S
C1932      H1944   1.080       .  S
C1933      C1934   1.401       .  A
C1933      H1945   1.082       .  S
C1934      H1946   1.082       .  S
C1935      C1936   1.357       .  A
C1935      H1947   1.077       .  S
C1936      H1948   1.075       .  S
C1937      C1938   1.373       .  A
C1937      H1949   1.082       .  S
C1938      H1950   1.083       .  S
C1939      C2472   1.491       .  S
C1940      C2424   1.482       .  S
N1953      C1958   1.342       .  A
N1953      C1957   1.350       .  A
N1953      H1985   1.044       .  S
N1954      C1961   1.349       .  A
N1954      C1962   1.341       .  A
N1955      C1960   1.374       .  A
N1955      C1959   1.376       .  A
N1955      H1986   1.040       .  S
N1956      C1963   1.358       .  A
N1956      C1964   1.359       .  A
C1957      C1965   1.388       .  A
C1957      C1973   1.408       .  A
C1958      C1974   1.400       .  A
C1958      C1966   1.387       .  A
C1959      C1967   1.389       .  A
C1959      C1976   1.467       .  A
C1960      C1975   1.470       .  A
C1960      C1968   1.391       .  A
C1961      C1973   1.390       .  A
C1961      C1969   1.373       .  A
C1962      C1976   1.412       .  A
C1962      C1970   1.396       .  A
C1963      C1971   1.381       .  A
C1963      C1974   1.414       .  A
C1964      C1972   1.387       .  A
C1964      C1975   1.433       .  A
C1965      C1966   1.377       .  A
C1965      H1977   1.081       .  S
C1966      H1978   1.082       .  S
C1967      C1968   1.412       .  A
C1967      H1979   1.082   1_545  S
C1968      H1980   1.082       .  S
C1969      C1970   1.367       .  A
C1969      H1981   1.081       .  S
C1970      H1982   1.078       .  S
C1971      C1972   1.362       .  A
C1971      H1983   1.081   1_655  S
C1972      H1984   1.073   1_655  S
C1973      C2493   1.491       .  S
C1974      C2400   1.476       .  S
O1987     Ni1993   1.944       .  S
O1987      C2008   1.288       .  A
O1988     Ni2011   1.992   1_455  S
O1988      C1997   1.318       .  A
O1989     Ni1993   1.816       .  S
O1989     Ni2011   1.868       .  S
O1989     Ni2005   1.907       .  S
O1989      H2012   0.968       .  S
C1990      O2007   1.317       .  A
C1990      O1999   1.307       .  A
O1991     Ni2010   1.948       .  S
O1991      C1997   1.297       .  A
O1992     Ni2010   1.921       .  S
O1992      C1994   1.275       .  A
Ni1993     O1996   1.917       .  S
Ni1993     O1998   1.912       .  S
C1994      O2004   1.273       .  A
O1995     Ni2011   2.068       .  S
O1995      C2001   1.338       .  A
O1996      C2001   1.287       .  A
C1997      C2161   1.538       .  S
O1998      C2000   1.277       .  A
O1999     Ni2010   2.012       .  S
C2000      O2006   1.288       .  A
H2002      O2003   0.966       .  S
O2003     Ni2011   1.893   1_455  S
O2003     Ni2005   1.864   1_455  S
O2003     Ni2010   1.834       .  S
O2004     Ni2005   1.965   1_455  S
Ni2005     O2009   1.967       .  S
Ni2005     O2007   1.998   1_655  S
O2006     Ni2011   1.991       .  S
C2008      O2009   1.303       .  A
C2013      C2352   1.481   1_655  S
C2013      N2014   1.359   1_655  A
C2013      N2018   1.365       .  A
N2014      C2015   1.352   1_455  A
C2015      C2364   1.454   1_654  S
C2015      N2016   1.344       .  A
N2016      C2017   1.355       .  A
C2017      C2376   1.484       .  S
C2017      N2018   1.357       .  A
N2019      C2024   1.348       .  A
N2019      C2023   1.349       .  A
N2019      H2051   1.030       .  S
N2020      C2027   1.353       .  A
N2020      C2028   1.351       .  A
N2021      C2026   1.360       .  A
N2021      C2025   1.362       .  A
N2021      H2052   1.038       .  S
N2022      C2029   1.353       .  A
N2022      C2030   1.348       .  A
C2023      C2031   1.388       .  A
C2023      C2039   1.412       .  A
C2024      C2040   1.408       .  A
C2024      C2032   1.385       .  A
C2025      C2033   1.390       .  A
C2025      C2042   1.436       .  A
C2026      C2041   1.428       .  A
C2026      C2034   1.385       .  A
C2027      C2039   1.421       .  A
C2027      C2035   1.388       .  A
C2028      C2042   1.415       .  A
C2028      C2036   1.386       .  A
C2029      C2037   1.384       .  A
C2029      C2040   1.409       .  A
C2030      C2038   1.393       .  A
C2030      C2041   1.418       .  A
C2031      C2032   1.375       .  A
C2031      H2043   1.082       .  S
C2032      H2044   1.083       .  S
C2033      C2034   1.388       .  A
C2033      H2045   1.082       .  S
C2034      H2046   1.082       .  S
C2035      C2036   1.365       .  A
C2035      H2047   1.082       .  S
C2036      H2048   1.082       .  S
C2037      C2038   1.355       .  A
C2037      H2049   1.081       .  S
C2038      H2050   1.080       .  S
C2039      C2349   1.481       .  S
C2040      C2337   1.479       .  S
C2053      C2301   1.470       .  S
C2053      N2054   1.353       .  A
C2053      N2058   1.357       .  A
N2054      C2055   1.348       .  A
C2055      C2325   1.453   1_545  S
C2055      N2056   1.351       .  A
N2056      C2057   1.350       .  A
C2057      C2316   1.454   1_455  S
C2057      N2058   1.358       .  A
C2059      C2280   1.471       .  S
C2059      N2060   1.353       .  A
C2059      N2064   1.359       .  A
N2060      C2061   1.341       .  A
C2061      C2340   1.473       .  S
C2061      N2062   1.352       .  A
N2062      C2063   1.357       .  A
C2063      C2289   1.489       .  S
C2063      N2064   1.366       .  A
N2065      C2070   1.339       .  A
N2065      C2069   1.351       .  A
N2065      H2097   1.043       .  S
N2066      C2073   1.337       .  A
N2066      C2074   1.329       .  A
N2067      C2072   1.366       .  A
N2067      C2071   1.378       .  A
N2067      H2098   1.043       .  S
N2068      C2075   1.357       .  A
N2068      C2076   1.362       .  A
C2069      C2077   1.387       .  A
C2069      C2085   1.412       .  A
C2070      C2086   1.401       .  A
C2070      C2078   1.389       .  A
C2071      C2079   1.391       .  A
C2071      C2088   1.469       .  A
C2072      C2087   1.461       .  A
C2072      C2080   1.391       .  A
C2073      C2085   1.399       .  A
C2073      C2081   1.383       .  A
C2074      C2088   1.399       .  A
C2074      C2082   1.392       .  A
C2075      C2083   1.379       .  A
C2075      C2086   1.423       .  A
C2076      C2084   1.384       .  A
C2076      C2087   1.430       .  A
C2077      C2078   1.383       .  A
C2077      H2089   1.082       .  S
C2078      H2090   1.083       .  S
C2079      C2080   1.414       .  A
C2079      H2091   1.082       .  S
C2080      H2092   1.082       .  S
C2081      C2082   1.382       .  A
C2081      H2093   1.082       .  S
C2082      H2094   1.081       .  S
C2083      C2084   1.374       .  A
C2083      H2095   1.080       .  S
C2084      H2096   1.076       .  S
C2085      C2277   1.477       .  S
C2086      C2304   1.490       .  S
C2099      C2253   1.493       .  S
C2099      N2100   1.361       .  A
C2099      N2104   1.373       .  A
N2100      C2101   1.352   1_565  A
C2101      C2241   1.477       .  S
C2101      N2102   1.348       .  A
N2102      C2103   1.341   1_545  A
C2103      C2268   1.478   1_565  S
C2103      N2104   1.364       .  A
N2105      C2110   1.352       .  A
N2105      C2109   1.342       .  A
N2105      H2137   1.042       .  S
N2106      C2113   1.353       .  A
N2106      C2114   1.358       .  A
N2107      C2112   1.379       .  A
N2107      C2111   1.373       .  A
N2107      H2138   1.042       .  S
N2108      C2115   1.341       .  A
N2108      C2116   1.338       .  A
C2109      C2117   1.389       .  A
C2109      C2125   1.400       .  A
C2110      C2126   1.406       .  A
C2110      C2118   1.387       .  A
C2111      C2119   1.392       .  A
C2111      C2128   1.471       .  A
C2112      C2127   1.476       .  A
C2112      C2120   1.393       .  A
C2113      C2125   1.405       .  A
C2113      C2121   1.379       .  A
C2114      C2128   1.427       .  A
C2114      C2122   1.392       .  A
C2115      C2123   1.368       .  A
C2115      C2126   1.388       .  A
C2116      C2124   1.388       .  A
C2116      C2127   1.394       .  A
C2117      C2118   1.363       .  A
C2117      H2129   1.082       .  S
C2118      H2130   1.083       .  S
C2119      C2120   1.417       .  A
C2119      H2131   1.082       .  S
C2120      H2132   1.082       .  S
C2121      C2122   1.369       .  A
C2121      H2133   1.083       .  S
C2122      H2134   1.079       .  S
C2123      C2124   1.372       .  A
C2123      H2135   1.073       .  S
C2124      H2136   1.080       .  S
C2125      C2244   1.468       .  S
C2126      C2292   1.485       .  S
N2139      C2144   1.350       .  A
N2139      C2143   1.350       .  A
N2139      H2171   1.040       .  S
N2140      C2147   1.362       .  A
N2140      C2148   1.356       .  A
N2141      C2146   1.370       .  A
N2141      C2145   1.360       .  A
N2141      H2172   1.033       .  S
N2142      C2149   1.342       .  A
N2142      C2150   1.343       .  A
C2143      C2151   1.381       .  A
C2143      C2159   1.401       .  A
C2144      C2160   1.411       .  A
C2144      C2152   1.390       .  A
C2145      C2153   1.388       .  A
C2145      C2162   1.446       .  A
C2146      C2161   1.456       .  A
C2146      C2154   1.390       .  A
C2147      C2159   1.423       .  A
C2147      C2155   1.381       .  A
C2148      C2162   1.432       .  A
C2148      C2156   1.390       .  A
C2149      C2157   1.385       .  A
C2149      C2160   1.401       .  A
C2150      C2158   1.390       .  A
C2150      C2161   1.410       .  A
C2151      C2152   1.368       .  A
C2151      H2163   1.082       .  S
C2152      H2164   1.081       .  S
C2153      C2154   1.402       .  A
C2153      H2165   1.082       .  S
C2154      H2166   1.082       .  S
C2155      C2156   1.365       .  A
C2155      H2167   1.080       .  S
C2156      H2168   1.079       .  S
C2157      C2158   1.377       .  A
C2157      H2169   1.082   1_455  S
C2158      H2170   1.082   1_455  S
C2159      C2265   1.507       .  S
C2160      C2361   1.475       .  S
N2173      C2178   1.359       .  A
N2173      C2177   1.359       .  A
N2173      H2205   1.036       .  S
N2174      C2181   1.343       .  A
N2174      C2182   1.352       .  A
N2175      C2180   1.335       .  A
N2175      C2179   1.345       .  A
N2175      H2206   1.045       .  S
N2176      C2183   1.346       .  A
N2176      C2184   1.348       .  A
C2177      C2185   1.383       .  A
C2177      C2193   1.415       .  A
C2178      C2194   1.436       .  A
C2178      C2186   1.389       .  A
C2179      C2187   1.381       .  A
C2179      C2196   1.389       .  A
C2180      C2195   1.393       .  A
C2180      C2188   1.388       .  A
C2181      C2193   1.405       .  A
C2181      C2189   1.386       .  A
C2182      C2196   1.412       .  A
C2182      C2190   1.387       .  A
C2183      C2191   1.390       .  A
C2183      C2194   1.426       .  A
C2184      C2192   1.388       .  A
C2184      C2195   1.424       .  A
C2185      C2186   1.360       .  A
C2185      H2197   1.082       .  S
C2186      H2198   1.079       .  S
C2187      C2188   1.376       .  A
C2187      H2199   1.079       .  S
C2188      H2200   1.083       .  S
C2189      C2190   1.362       .  A
C2189      H2201   1.082       .  S
C2190      H2202   1.077       .  S
C2191      C2192   1.404       .  A
C2191      H2203   1.082       .  S
C2192      H2204   1.082       .  S
C2193      C2328   1.472       .  S
C2196      C2256   1.491       .  S
N2207      C2212   1.333       .  A
N2207      C2211   1.341       .  A
N2207      H2239   1.045       .  S
N2208      C2215   1.347       .  A
N2208      C2216   1.338       .  A
N2209      C2214   1.353       .  A
N2209      C2213   1.357       .  A
N2209      H2240   1.041       .  S
N2210      C2217   1.374       .  A
N2210      C2218   1.368       .  A
C2211      C2219   1.381       .  A
C2211      C2227   1.378       .  A
C2212      C2228   1.388       .  A
C2212      C2220   1.392       .  A
C2213      C2221   1.381       .  A
C2213      C2230   1.409       .  A
C2214      C2229   1.425       .  A
C2214      C2222   1.395       .  A
C2215      C2227   1.399       .  A
C2215      C2223   1.383       .  A
C2216      C2230   1.398       .  A
C2216      C2224   1.389       .  A
C2217      C2225   1.389       .  A
C2217      C2228   1.464       .  A
C2218      C2226   1.392       .  A
C2218      C2229   1.466       .  A
C2219      C2220   1.368       .  A
C2219      H2231   1.078   1_554  S
C2220      H2232   1.082   1_554  S
C2221      C2222   1.372       .  A
C2221      H2233   1.082   1_545  S
C2222      H2234   1.082   1_545  S
C2223      C2224   1.374       .  A
C2223      H2235   1.082       .  S
C2224      H2236   1.082       .  S
C2225      C2226   1.412       .  A
C2225      H2237   1.082       .  S
C2226      H2238   1.082       .  S
C2227      C2373   1.473       .  S
C2230      C2313   1.473       .  S
C2241      C2242   1.406       .  A
C2241      C2246   1.410       .  A
C2242      C2243   1.386       .  A
C2242      H2251   1.084       .  S
C2243      C2244   1.407       .  A
C2243      S2247   1.805       .  S
C2244      C2245   1.404       .  A
C2245      C2246   1.395       .  A
C2245      H2252   1.084       .  S
C2246      S2248   1.801   1_545  S
S2247      H2250   1.407       .  S
S2248      H2249   1.408       .  S
C2253      C2254   1.413       .  A
C2253      C2258   1.408       .  A
C2254      C2255   1.399       .  A
C2254      H2263   1.082       .  S
C2255      C2256   1.402       .  A
C2255      S2259   1.795       .  S
C2256      C2257   1.411       .  A
C2257      C2258   1.396       .  A
C2257      H2264   1.082       .  S
C2258      S2260   1.797       .  S
S2259      H2262   1.408       .  S
S2260      H2261   1.408       .  S
C2265      C2266   1.414       .  A
C2265      C2270   1.410       .  A
C2266      C2267   1.405   1_546  A
C2266      H2275   1.081       .  S
C2267      C2268   1.407   1_565  A
C2267      S2271   1.801       .  S
C2268      C2269   1.410   1_554  A
C2269      C2270   1.401       .  A
C2269      H2276   1.085   1_556  S
C2270      S2272   1.803       .  S
S2271      H2274   1.405       .  S
S2272      H2273   1.407       .  S
C2277      C2278   1.399       .  A
C2277      C2282   1.409       .  A
C2278      C2279   1.401       .  A
C2278      H2287   1.084       .  S
C2279      C2280   1.415       .  A
C2279      S2283   1.797       .  S
C2280      C2281   1.401       .  A
C2281      C2282   1.393       .  A
C2281      H2288   1.084       .  S
C2282      S2284   1.804       .  S
S2283      H2286   1.404       .  S
S2284      H2285   1.407       .  S
C2289      C2290   1.401       .  A
C2289      C2294   1.423       .  A
C2290      C2291   1.394       .  A
C2290      H2299   1.078       .  S
C2291      C2292   1.412       .  A
C2291      S2295   1.809       .  S
C2292      C2293   1.395       .  A
C2293      C2294   1.401       .  A
C2293      H2300   1.084       .  S
C2294      S2296   1.795       .  S
S2295      H2298   1.407       .  S
S2296      H2297   1.407       .  S
C2301      C2302   1.404       .  A
C2301      C2306   1.409       .  A
C2302      C2303   1.397       .  A
C2302      H2311   1.084       .  S
C2303      C2304   1.410       .  A
C2303      S2307   1.792       .  S
C2304      C2305   1.406       .  A
C2305      C2306   1.390       .  A
C2305      H2312   1.083       .  S
C2306      S2308   1.807       .  S
S2307      H2310   1.407       .  S
S2308      H2309   1.408       .  S
C2313      C2314   1.399       .  A
C2313      C2318   1.413       .  A
C2314      C2315   1.391       .  A
C2314      H2323   1.081       .  S
C2315      C2316   1.409       .  A
C2315      S2319   1.805       .  S
C2316      C2317   1.399       .  A
C2317      C2318   1.395       .  A
C2317      H2324   1.084   1_655  S
C2318      S2320   1.804       .  S
S2319      H2322   1.408   1_655  S
S2320      H2321   1.406       .  S
C2325      C2326   1.393       .  A
C2325      C2330   1.410       .  A
C2326      C2327   1.386       .  A
C2326      H2335   1.085       .  S
C2327      C2328   1.416       .  A
C2327      S2331   1.811       .  S
C2328      C2329   1.401       .  A
C2329      C2330   1.399       .  A
C2329      H2336   1.084       .  S
C2330      S2332   1.803       .  S
S2331      H2334   1.399       .  S
S2332      H2333   1.405       .  S
C2337      C2338   1.400       .  A
C2337      C2342   1.412       .  A
C2338      C2339   1.400       .  A
C2338      H2347   1.084       .  S
C2339      C2340   1.419       .  A
C2339      S2343   1.801       .  S
C2340      C2341   1.400       .  A
C2341      C2342   1.390       .  A
C2341      H2348   1.082       .  S
C2342      S2344   1.811       .  S
S2343      H2346   1.407       .  S
S2344      H2345   1.406       .  S
C2349      C2350   1.401       .  A
C2349      C2354   1.407       .  A
C2350      C2351   1.401       .  A
C2350      H2359   1.083       .  S
C2351      C2352   1.421       .  A
C2351      S2355   1.809       .  S
C2352      C2353   1.403       .  A
C2353      C2354   1.392       .  A
C2353      H2360   1.084   1_455  S
C2354      S2356   1.797   1_455  S
S2355      H2358   1.407       .  S
S2356      H2357   1.400   1_655  S
C2361      C2362   1.405       .  A
C2361      C2366   1.414       .  A
C2362      C2363   1.400   1_556  A
C2362      H2371   1.081       .  S
C2363      C2364   1.406   1_554  A
C2363      S2367   1.802   1_455  S
C2364      C2365   1.395       .  A
C2365      C2366   1.385       .  A
C2365      H2372   1.085       .  S
C2366      S2368   1.804       .  S
S2367      H2370   1.407       .  S
S2368      H2369   1.407       .  S
C2373      C2374   1.412       .  A
C2373      C2378   1.413       .  A
C2374      C2375   1.401       .  A
C2374      H2383   1.084       .  S
C2375      C2376   1.401       .  A
C2375      S2379   1.800       .  S
C2376      C2377   1.406       .  A
C2377      C2378   1.402       .  A
C2377      H2384   1.084   1_554  S
C2378      S2380   1.798   1_554  S
S2379      H2382   1.408       .  S
S2380      H2381   1.404       .  S
C2385      C2386   1.402   1_655  A
C2385      C2390   1.417       .  A
C2386      C2387   1.398   1_455  A
C2386      H2395   1.083       .  S
C2387      C2388   1.412       .  A
C2387      S2391   1.802       .  S
C2388      C2389   1.398       .  A
C2389      C2390   1.397       .  A
C2389      H2396   1.083       .  S
C2390      S2392   1.803       .  S
S2391      H2394   1.407   1_655  S
S2392      H2393   1.408       .  S
C2397      C2398   1.403       .  A
C2397      C2402   1.410   1_655  A
C2398      C2399   1.390       .  A
C2398      H2407   1.083       .  S
C2399      C2400   1.405       .  A
C2399      S2403   1.808       .  S
C2400      C2401   1.403       .  A
C2401      C2402   1.399   1_655  A
C2401      H2408   1.078   1_655  S
C2402      S2404   1.800       .  S
S2403      H2406   1.407       .  S
S2404      H2405   1.405       .  S
C2409      C2410   1.398       .  A
C2409      C2414   1.419       .  A
C2410      C2411   1.392       .  A
C2410      H2419   1.083       .  S
C2411      C2412   1.414       .  A
C2411      S2415   1.811       .  S
C2412      C2413   1.396       .  A
C2413      C2414   1.400       .  A
C2413      H2420   1.083       .  S
C2414      S2416   1.807       .  S
S2415      H2418   1.407       .  S
S2416      H2417   1.407       .  S
C2421      C2422   1.406       .  A
C2421      C2426   1.401       .  A
C2422      C2423   1.398       .  A
C2422      H2431   1.083       .  S
C2423      C2424   1.409       .  A
C2423      S2427   1.806       .  S
C2424      C2425   1.409       .  A
C2425      C2426   1.393       .  A
C2425      H2432   1.081       .  S
C2426      S2428   1.804       .  S
S2427      H2430   1.407       .  S
S2428      H2429   1.407   1_655  S
C2433      C2434   1.409       .  A
C2433      C2438   1.414       .  A
C2434      C2435   1.388   1_655  A
C2434      H2443   1.080       .  S
C2435      C2436   1.398       .  A
C2435      S2439   1.803       .  S
C2436      C2437   1.400       .  A
C2437      C2438   1.401   1_455  A
C2437      H2444   1.084       .  S
C2438      S2440   1.804       .  S
S2439      H2442   1.408       .  S
S2440      H2441   1.408       .  S
C2445      C2446   1.404       .  A
C2445      C2450   1.421       .  A
C2446      C2447   1.388       .  A
C2446      H2455   1.082       .  S
C2447      C2448   1.412       .  A
C2447      S2451   1.809       .  S
C2448      C2449   1.402       .  A
C2449      C2450   1.410       .  A
C2449      H2456   1.083       .  S
C2450      S2452   1.806       .  S
S2451      H2454   1.406       .  S
S2452      H2453   1.408       .  S
C2457      C2458   1.399       .  A
C2457      C2462   1.409       .  A
C2458      C2459   1.399       .  A
C2458      H2467   1.084       .  S
C2459      C2460   1.410       .  A
C2459      S2463   1.793       .  S
C2460      C2461   1.398       .  A
C2461      C2462   1.390       .  A
C2461      H2468   1.084       .  S
C2462      S2464   1.803       .  S
S2463      H2466   1.405       .  S
S2464      H2465   1.407       .  S
C2469      C2470   1.408       .  A
C2469      C2474   1.405       .  A
C2470      C2471   1.403       .  A
C2470      H2479   1.083       .  S
C2471      C2472   1.412       .  A
C2471      S2475   1.805       .  S
C2472      C2473   1.409       .  A
C2473      C2474   1.383       .  A
C2473      H2480   1.082       .  S
C2474      S2476   1.804       .  S
S2475      H2478   1.406       .  S
S2476      H2477   1.407       .  S
C2481      C2482   1.402       .  A
C2481      C2486   1.403       .  A
C2482      C2483   1.387       .  A
C2482      H2491   1.084       .  S
C2483      C2484   1.413       .  A
C2483      S2487   1.804       .  S
C2484      C2485   1.414       .  A
C2485      C2486   1.400       .  A
C2485      H2492   1.082       .  S
C2486      S2488   1.806       .  S
S2487      H2490   1.408       .  S
S2488      H2489   1.407       .  S
C2493      C2494   1.409       .  A
C2493      C2498   1.409       .  A
C2494      C2495   1.391       .  A
C2494      H2503   1.083       .  S
C2495      C2496   1.412       .  A
C2495      S2499   1.804       .  S
C2496      C2497   1.411       .  A
C2497      C2498   1.399       .  A
C2497      H2504   1.084       .  S
C2498      S2500   1.803       .  S
S2499      H2502   1.408       .  S
S2500      H2501   1.407       .  S
C2505      C2506   1.400       .  A
C2505      C2510   1.399       .  A
C2506      C2507   1.395       .  A
C2506      H2515   1.084       .  S
C2507      C2508   1.411       .  A
C2507      S2511   1.802       .  S
C2508      C2509   1.410       .  A
C2509      C2510   1.391       .  A
C2509      H2516   1.083       .  S
C2510      S2512   1.806       .  S
S2511      H2514   1.405       .  S
S2512      H2513   1.406       .  S
C2517      C2518   1.399       .  A
C2517      C2522   1.405       .  A
C2518      C2519   1.398       .  A
C2518      H2527   1.084       .  S
C2519      C2520   1.412       .  A
C2519      S2523   1.799       .  S
C2520      C2521   1.404       .  A
C2521      C2522   1.391       .  A
C2521      H2528   1.084       .  S
C2522      S2524   1.803       .  S
S2523      H2526   1.408       .  S
S2524      H2525   1.408       .  S
C2529      C2530   1.415       .  A
C2529      C2534   1.412       .  A
C2530      C2531   1.388       .  A
C2530      H2539   1.081       .  S
C2531      C2532   1.394       .  A
C2531      S2535   1.806       .  S
C2532      C2533   1.401       .  A
C2533      C2534   1.393       .  A
C2533      H2540   1.084       .  S
C2534      S2536   1.808       .  S
S2535      H2538   1.407       .  S
S2536      H2537   1.407       .  S
C2541      C2542   1.399       .  A
C2541      C2546   1.405       .  A
C2542      C2543   1.386       .  A
C2542      H2551   1.085       .  S
C2543      C2544   1.414       .  A
C2543      S2547   1.805       .  S
C2544      C2545   1.401       .  A
C2545      C2546   1.392       .  A
C2545      H2552   1.082       .  S
C2546      S2548   1.795   1_455  S
S2547      H2550   1.407       .  S
S2548      H2549   1.402       .  S
C2553      C2554   1.403       .  A
C2553      C2558   1.406       .  A
C2554      C2555   1.387       .  A
C2554      H2563   1.083       .  S
C2555      C2556   1.409       .  A
C2555      S2559   1.799       .  S
C2556      C2557   1.406       .  A
C2557      C2558   1.398       .  A
C2557      H2564   1.083       .  S
C2558      S2560   1.801       .  S
S2559      H2562   1.408       .  S
S2560      H2561   1.407   1_655  S
C2565      C2566   1.401       .  A
C2565      C2570   1.400       .  A
C2566      C2567   1.397       .  A
C2566      H2575   1.084       .  S
C2567      C2568   1.413       .  A
C2567      S2571   1.788       .  S
C2568      C2569   1.413       .  A
C2569      C2570   1.392       .  A
C2569      H2576   1.079       .  S
C2570      S2572   1.797       .  S
S2571      H2574   1.402       .  S
S2572      H2573   1.407       .  S
C2577      C2578   1.399       .  A
C2577      C2582   1.415       .  A
C2578      C2579   1.396       .  A
C2578      H2587   1.083       .  S
C2579      C2580   1.417       .  A
C2579      S2583   1.811       .  S
C2580      C2581   1.401       .  A
C2581      C2582   1.401       .  A
C2581      H2588   1.083       .  S
C2582      S2584   1.802       .  S
S2583      H2586   1.407       .  S
S2584      H2585   1.408       .  S
C2589      C2590   1.407       .  A
C2589      C2594   1.414       .  A
C2590      C2591   1.400       .  A
C2590      H2599   1.084       .  S
C2591      C2592   1.417       .  A
C2591      S2595   1.801       .  S
C2592      C2593   1.406       .  A
C2593      C2594   1.400       .  A
C2593      H2600   1.083       .  S
C2594      S2596   1.797       .  S
S2595      H2598   1.408       .  S
S2596      H2597   1.403       .  S
C2601      C2602   1.393       .  A
C2601      C2606   1.404       .  A
C2602      C2603   1.401       .  A
C2602      H2611   1.083       .  S
C2603      C2604   1.429       .  A
C2603      S2607   1.806       .  S
C2604      C2605   1.410       .  A
C2605      C2606   1.392       .  A
C2605      H2612   1.081       .  S
C2606      S2608   1.803       .  S
S2607      H2610   1.407       .  S
S2608      H2609   1.408       .  S
C2613      C2614   1.416       .  A
C2613      C2618   1.413       .  A
C2614      C2615   1.398       .  A
C2614      H2623   1.084       .  S
C2615      C2616   1.402       .  A
C2615      S2619   1.804       .  S
C2616      C2617   1.405       .  A
C2617      C2618   1.397       .  A
C2617      H2624   1.082       .  S
C2618      S2620   1.809       .  S
S2619      H2622   1.407       .  S
S2620      H2621   1.407       .  S
C2625      C2626   1.405       .  A
C2625      C2630   1.410       .  A
C2626      C2627   1.397       .  A
C2626      H2635   1.085       .  S
C2627      C2628   1.414       .  A
C2627      S2631   1.803       .  S
C2628      C2629   1.405       .  A
C2629      C2630   1.400       .  A
C2629      H2636   1.084       .  S
C2630      S2632   1.803       .  S
S2631      H2634   1.400       .  S
S2632      H2633   1.406       .  S
C2637      C2638   1.401       .  A
C2637      C2642   1.420       .  A
C2638      C2639   1.391       .  A
C2638      H2647   1.082       .  S
C2639      C2640   1.416       .  A
C2639      S2643   1.814       .  S
C2640      C2641   1.401       .  A
C2641      C2642   1.403       .  A
C2641      H2648   1.082       .  S
C2642      S2644   1.806       .  S
S2643      H2646   1.406       .  S
S2644      H2645   1.403       .  S
C2649      C2650   1.408       .  A
C2649      C2654   1.402       .  A
C2650      C2651   1.404       .  A
C2650      H2659   1.083       .  S
C2651      C2652   1.413       .  A
C2651      S2655   1.802       .  S
C2652      C2653   1.409       .  A
C2653      C2654   1.396       .  A
C2653      H2660   1.073       .  S
C2654      S2656   1.800       .  S
S2655      H2658   1.408       .  S
S2656      H2657   1.406       .  S
C2661      C2662   1.408   1_655  A
C2661      C2666   1.420       .  A
C2662      C2663   1.392       .  A
C2662      H2671   1.082       .  S
C2663      C2664   1.410       .  A
C2663      S2667   1.813       .  S
C2664      C2665   1.400   1_455  A
C2665      C2666   1.408       .  A
C2665      H2672   1.083       .  S
C2666      S2668   1.801       .  S
S2667      H2670   1.406       .  S
S2668      H2669   1.407       .  S
C2673      C2674   1.401       .  A
C2673      C2678   1.407       .  A
C2674      C2675   1.403       .  A
C2674      H2683   1.083       .  S
C2675      C2676   1.409       .  A
C2675      S2679   1.794       .  S
C2676      C2677   1.405       .  A
C2677      C2678   1.402       .  A
C2677      H2684   1.083       .  S
C2678      S2680   1.804       .  S
S2679      H2682   1.407       .  S
S2680      H2681   1.407       .  S
C2685      C2686   1.408       .  A
C2685      C2690   1.421       .  A
C2686      C2687   1.398       .  A
C2686      H2695   1.084       .  S
C2687      C2688   1.407       .  A
C2687      S2691   1.803       .  S
C2688      C2689   1.395       .  A
C2689      C2690   1.393       .  A
C2689      H2696   1.084       .  S
C2690      S2692   1.809       .  S
S2691      H2694   1.406       .  S
S2692      H2693   1.407       .  S
C2697      C2698   1.390       .  A
C2697      C2702   1.406       .  A
C2698      C2699   1.393       .  A
C2698      H2707   1.084       .  S
C2699      C2700   1.426       .  A
C2699      S2703   1.803       .  S
C2700      C2701   1.411       .  A
C2701      C2702   1.399       .  A
C2701      H2708   1.084       .  S
C2702      S2704   1.802       .  S
S2703      H2706   1.407       .  S
S2704      H2705   1.406       .  S
C2709      C2710   1.399       .  A
C2709      C2714   1.417       .  A
C2710      C2711   1.399       .  A
C2710      H2719   1.083       .  S
C2711      C2712   1.414       .  A
C2711      S2715   1.801       .  S
C2712      C2713   1.397       .  A
C2713      C2714   1.394       .  A
C2713      H2720   1.082       .  S
C2714      S2716   1.806       .  S
S2715      H2718   1.408       .  S
S2716      H2717   1.406       .  S
C2721      C2722   1.402       .  A
C2721      C2726   1.407       .  A
C2722      C2723   1.394       .  A
C2722      H2731   1.083       .  S
C2723      C2724   1.409       .  A
C2723      S2727   1.801       .  S
C2724      C2725   1.405       .  A
C2725      C2726   1.395       .  A
C2725      H2732   1.084       .  S
C2726      S2728   1.805       .  S
S2727      H2730   1.405       .  S
S2728      H2729   1.405       .  S
C2733      C2734   1.401       .  A
C2733      C2738   1.414       .  A
C2734      C2735   1.390       .  A
C2734      H2743   1.084       .  S
C2735      C2736   1.408       .  A
C2735      S2739   1.794       .  S
C2736      C2737   1.401       .  A
C2737      C2738   1.396       .  A
C2737      H2744   1.084       .  S
C2738      S2740   1.803       .  S
S2739      H2742   1.408       .  S
S2740      H2741   1.409       .  S
C2745      C2746   1.401       .  A
C2745      C2750   1.408       .  A
C2746      C2747   1.387       .  A
C2746      H2755   1.083       .  S
C2747      C2748   1.412       .  A
C2747      S2751   1.806       .  S
C2748      C2749   1.406       .  A
C2749      C2750   1.400       .  A
C2749      H2756   1.084       .  S
C2750      S2752   1.799       .  S
S2751      H2754   1.407       .  S
S2752      H2753   1.406       .  S
C2757      C2758   1.398       .  A
C2757      C2762   1.411       .  A
C2758      C2759   1.396   1_565  A
C2758      H2767   1.084       .  S
C2759      C2760   1.422       .  A
C2759      S2763   1.803       .  S
C2760      C2761   1.407   1_545  A
C2761      C2762   1.395       .  A
C2761      H2768   1.083       .  S
C2762      S2764   1.804       .  S
S2763      H2766   1.408       .  S
S2764      H2765   1.407       .  S
C2769      C2770   1.395       .  A
C2769      C2774   1.412       .  A
C2770      C2771   1.394       .  A
C2770      H2779   1.083       .  S
C2771      C2772   1.421       .  A
C2771      S2775   1.811       .  S
C2772      C2773   1.401       .  A
C2773      C2774   1.403       .  A
C2773      H2780   1.083   1_545  S
C2774      S2776   1.791   1_545  S
S2775      H2778   1.406       .  S
S2776      H2777   1.407       .  S
C2781      C2782   1.404       .  A
C2781      C2786   1.411       .  A
C2782      C2783   1.390       .  A
C2782      H2791   1.084       .  S
C2783      C2784   1.408       .  A
C2783      S2787   1.804       .  S
C2784      C2785   1.396       .  A
C2785      C2786   1.390       .  A
C2785      H2792   1.085       .  S
C2786      S2788   1.788       .  S
S2787      H2790   1.407       .  S
S2788      H2789   1.405       .  S
C2793      C2794   1.404       .  A
C2793      C2798   1.423       .  A
C2794      C2795   1.391       .  A
C2794      H2803   1.082       .  S
C2795      C2796   1.415   1_545  A
C2795      S2799   1.806       .  S
C2796      C2797   1.405       .  A
C2797      C2798   1.412   1_565  A
C2797      H2804   1.083       .  S
C2798      S2800   1.805   1_545  S
S2799      H2802   1.407       .  S
S2800      H2801   1.407   1_565  S
C2805      C2806   1.419       .  A
C2805      C2810   1.407       .  A
C2806      C2807   1.399       .  A
C2806      H2815   1.083       .  S
C2807      C2808   1.402       .  A
C2807      S2811   1.801       .  S
C2808      C2809   1.410       .  A
C2809      C2810   1.396       .  A
C2809      H2816   1.083       .  S
C2810      S2812   1.800       .  S
S2811      H2814   1.406       .  S
S2812      H2813   1.408       .  S
C2817      C2818   1.397       .  A
C2817      C2822   1.416       .  A
C2818      C2819   1.402       .  A
C2818      H2827   1.083       .  S
C2819      C2820   1.418       .  A
C2819      S2823   1.803       .  S
C2820      C2821   1.397       .  A
C2821      C2822   1.387       .  A
C2821      H2828   1.083       .  S
C2822      S2824   1.810       .  S
S2823      H2826   1.407       .  S
S2824      H2825   1.407       .  S
C2829      C2830   1.396       .  A
C2829      C2834   1.417       .  A
C2830      C2831   1.397       .  A
C2830      H2839   1.083       .  S
C2831      C2832   1.414       .  A
C2831      S2835   1.804       .  S
C2832      C2833   1.400       .  A
C2833      C2834   1.388       .  A
C2833      H2840   1.084       .  S
C2834      S2836   1.807       .  S
S2835      H2838   1.407       .  S
S2836      H2837   1.406       .  S
C2841      C2842   1.410       .  A
C2841      C2846   1.402   1_554  A
C2842      C2843   1.405       .  A
C2842      H2851   1.083       .  S
C2843      C2844   1.408       .  A
C2843      S2847   1.804       .  S
C2844      C2845   1.415       .  A
C2845      C2846   1.392   1_554  A
C2845      H2852   1.084   1_554  S
C2846      S2848   1.805       .  S
S2847      H2850   1.408       .  S
S2848      H2849   1.406       .  S
C2853      C2854   1.407       .  A
C2853      C2858   1.406       .  A
C2854      C2855   1.406       .  A
C2854      H2863   1.084       .  S
C2855      C2856   1.417       .  A
C2855      S2859   1.808       .  S
C2856      C2857   1.406       .  A
C2857      C2858   1.391       .  A
C2857      H2864   1.081       .  S
C2858      S2860   1.801       .  S
S2859      H2862   1.403       .  S
S2860      H2861   1.406       .  S
C2865      C2866   1.412       .  A
C2865      C2870   1.414       .  A
C2866      C2867   1.389   1_554  A
C2866      H2875   1.084       .  S
C2867      C2868   1.403       .  A
C2867      S2871   1.803       .  S
C2868      C2869   1.402       .  A
C2869      C2870   1.397   1_556  A
C2869      H2876   1.083       .  S
C2870      S2872   1.809       .  S
S2871      H2874   1.406       .  S
S2872      H2873   1.407       .  S
C2877      C2878   1.401       .  A
C2877      C2882   1.412       .  A
C2878      C2879   1.401       .  A
C2878      H2887   1.084   1_554  S
C2879      C2880   1.414       .  A
C2879      S2883   1.802   1_554  S
C2880      C2881   1.402       .  A
C2881      C2882   1.402       .  A
C2881      H2888   1.083       .  S
C2882      S2884   1.806       .  S
S2883      H2886   1.408   1_556  S
S2884      H2885   1.407       .  S
C2889      C2890   1.405       .  A
C2889      C2894   1.416       .  A
C2890      C2891   1.409       .  A
C2890      H2899   1.083       .  S
C2891      C2892   1.414       .  A
C2891      S2895   1.803       .  S
C2892      C2893   1.398       .  A
C2893      C2894   1.387       .  A
C2893      H2900   1.082       .  S
C2894      S2896   1.806       .  S
S2895      H2898   1.400       .  S
S2896      H2897   1.407       .  S
C2901      C2902   1.403       .  A
C2901      C2906   1.402       .  A
C2902      C2903   1.397       .  A
C2902      H2911   1.084       .  S
C2903      C2904   1.408       .  A
C2903      S2907   1.801       .  S
C2904      C2905   1.408       .  A
C2905      C2906   1.394       .  A
C2905      H2912   1.083       .  S
C2906      S2908   1.797       .  S
S2907      H2910   1.408       .  S
S2908      H2909   1.406       .  S
C2913      C2914   1.400       .  A
C2913      C2918   1.407       .  A
C2914      C2915   1.397       .  A
C2914      H2923   1.082       .  S
C2915      C2916   1.411       .  A
C2915      S2919   1.801       .  S
C2916      C2917   1.403       .  A
C2917      C2918   1.391       .  A
C2917      H2924   1.084       .  S
C2918      S2920   1.802       .  S
S2919      H2922   1.407       .  S
S2920      H2921   1.407       .  S
C2925      C2926   1.401       .  A
C2925      C2930   1.409       .  A
C2926      C2927   1.398       .  A
C2926      H2935   1.084       .  S
C2927      C2928   1.415       .  A
C2927      S2931   1.803       .  S
C2928      C2929   1.404       .  A
C2929      C2930   1.391       .  A
C2929      H2936   1.083       .  S
C2930      S2932   1.808       .  S
S2931      H2934   1.403       .  S
S2932      H2933   1.407       .  S
C2937      C2938   1.406       .  A
C2937      C2942   1.420       .  A
C2938      C2939   1.390       .  A
C2938      H2947   1.082       .  S
C2939      C2940   1.405       .  A
C2939      S2943   1.803       .  S
C2940      C2941   1.395       .  A
C2941      C2942   1.400       .  A
C2941      H2948   1.078       .  S
C2942      S2944   1.807       .  S
S2943      H2946   1.408       .  S
S2944      H2945   1.407       .  S
C2949      C2950   1.399       .  A
C2949      C2954   1.412       .  A
C2950      C2951   1.392       .  A
C2950      H2959   1.084       .  S
C2951      C2952   1.417       .  A
C2951      S2955   1.807       .  S
C2952      C2953   1.401       .  A
C2953      C2954   1.405       .  A
C2953      H2960   1.080       .  S
C2954      S2956   1.803       .  S
S2955      H2958   1.407       .  S
S2956      H2957   1.407       .  S
C2961      C2962   1.408       .  A
C2961      C2966   1.415       .  A
C2962      C2963   1.396       .  A
C2962      H2971   1.084       .  S
C2963      C2964   1.408       .  A
C2963      S2967   1.801       .  S
C2964      C2965   1.401       .  A
C2965      C2966   1.398       .  A
C2965      H2972   1.083       .  S
C2966      S2968   1.808       .  S
S2967      H2970   1.408       .  S
S2968      H2969   1.406       .  S
C2973      C2974   1.403       .  A
C2973      C2978   1.403       .  A
C2974      C2975   1.404       .  A
C2974      H2983   1.082       .  S
C2975      C2976   1.413       .  A
C2975      S2979   1.807       .  S
C2976      C2977   1.405       .  A
C2977      C2978   1.394       .  A
C2977      H2984   1.083       .  S
C2978      S2980   1.808       .  S
S2979      H2982   1.406       .  S
S2980      H2981   1.406       .  S
C2985      C2986   1.397       .  A
C2985      C2990   1.413       .  A
C2986      C2987   1.390   1_556  A
C2986      H2995   1.083       .  S
C2987      C2988   1.417       .  A
C2987      S2991   1.812       .  S
C2988      C2989   1.404       .  A
C2989      C2990   1.410   1_554  A
C2989      H2996   1.082       .  S
C2990      S2992   1.804       .  S
S2991      H2994   1.407       .  S
S2992      H2993   1.407       .  S
C2997      C2998   1.408       .  A
C2997      C3002   1.421       .  A
C2998      C2999   1.394       .  A
C2998      H3007   1.082       .  S
C2999      C3000   1.396       .  A
C2999      S3003   1.779       .  S
C3000      C3001   1.400       .  A
C3001      C3002   1.395       .  A
C3001      H3008   1.080       .  S
C3002      S3004   1.805       .  S
S3003      H3006   1.407       .  S
S3004      H3005   1.407       .  S
C3009      C3010   1.397       .  A
C3009      C3014   1.419       .  A
C3010      C3011   1.389       .  A
C3010      H3019   1.084       .  S
C3011      C3012   1.415       .  A
C3011      S3015   1.807       .  S
C3012      C3013   1.393       .  A
C3013      C3014   1.398       .  A
C3013      H3020   1.081       .  S
C3014      S3016   1.799       .  S
S3015      H3018   1.406       .  S
S3016      H3017   1.407       .  S
C3021      C3022   1.399       .  A
C3021      C3026   1.414       .  A
C3022      C3023   1.410       .  A
C3022      H3031   1.083       .  S
C3023      C3024   1.429       .  A
C3023      S3027   1.808       .  S
C3024      C3025   1.404       .  A
C3025      C3026   1.394       .  A
C3025      H3032   1.081       .  S
C3026      S3028   1.807       .  S
S3027      H3030   1.407       .  S
S3028      H3029   1.407       .  S
C3033      C3034   1.405       .  A
C3033      C3038   1.413       .  A
C3034      C3035   1.389       .  A
C3034      H3043   1.083       .  S
C3035      C3036   1.408       .  A
C3035      S3039   1.804       .  S
C3036      C3037   1.399       .  A
C3037      C3038   1.392       .  A
C3037      H3044   1.084       .  S
C3038      S3040   1.804       .  S
S3039      H3042   1.405       .  S
S3040      H3041   1.408       .  S
C3045      C3046   1.398       .  A
C3045      C3050   1.411       .  A
C3046      C3047   1.401   1_556  A
C3046      H3055   1.083       .  S
C3047      C3048   1.420       .  A
C3047      S3051   1.807       .  S
C3048      C3049   1.399       .  A
C3049      C3050   1.391   1_554  A
C3049      H3056   1.083       .  S
C3050      S3052   1.810       .  S
S3051      H3054   1.407       .  S
S3052      H3053   1.407   1_556  S
C3057      C3058   1.409       .  A
C3057      C3062   1.409       .  A
C3058      C3059   1.391       .  A
C3058      H3067   1.084       .  S
C3059      C3060   1.404       .  A
C3059      S3063   1.792       .  S
C3060      C3061   1.409       .  A
C3061      C3062   1.401       .  A
C3061      H3068   1.082       .  S
C3062      S3064   1.806       .  S
S3063      H3066   1.406       .  S
S3064      H3065   1.406       .  S
C3069      C3070   1.408       .  A
C3069      C3074   1.413       .  A
C3070      C3071   1.392       .  A
C3070      H3079   1.081       .  S
C3071      C3072   1.399       .  A
C3071      S3075   1.805       .  S
C3072      C3073   1.402       .  A
C3073      C3074   1.393       .  A
C3073      H3080   1.084       .  S
C3074      S3076   1.803       .  S
S3075      H3078   1.407       .  S
S3076      H3077   1.407       .  S
C3081      C3082   1.411       .  A
C3081      C3086   1.415       .  A
C3082      C3083   1.391       .  A
C3082      H3091   1.084       .  S
C3083      C3084   1.405       .  A
C3083      S3087   1.807       .  S
C3084      C3085   1.400       .  A
C3085      C3086   1.394       .  A
C3085      H3092   1.084       .  S
C3086      S3088   1.808       .  S
S3087      H3090   1.405       .  S
S3088      H3089   1.408       .  S
C3093      C3094   1.400       .  A
C3093      C3098   1.414       .  A
C3094      C3095   1.401       .  A
C3094      H3103   1.083       .  S
C3095      C3096   1.409       .  A
C3095      S3099   1.805       .  S
C3096      C3097   1.393       .  A
C3097      C3098   1.382       .  A
C3097      H3104   1.084       .  S
C3098      S3100   1.807       .  S
S3099      H3102   1.407       .  S
S3100      H3101   1.407       .  S
C3105      C3106   1.401       .  A
C3105      C3110   1.415       .  A
C3106      C3107   1.401       .  A
C3106      H3115   1.084       .  S
C3107      C3108   1.419       .  A
C3107      S3111   1.804       .  S
C3108      C3109   1.398       .  A
C3109      C3110   1.383       .  A
C3109      H3116   1.082       .  S
C3110      S3112   1.808       .  S
S3111      H3114   1.406       .  S
S3112      H3113   1.408       .  S
C3117      C3118   1.399       .  A
C3117      C3122   1.408       .  A
C3118      C3119   1.388       .  A
C3118      H3127   1.085       .  S
C3119      C3120   1.418       .  A
C3119      S3123   1.807       .  S
C3120      C3121   1.404       .  A
C3121      C3122   1.408       .  A
C3121      H3128   1.083       .  S
C3122      S3124   1.803       .  S
S3123      H3126   1.407       .  S
S3124      H3125   1.407       .  S
C3129      C3130   1.391       .  A
C3129      C3134   1.415       .  A
C3130      C3131   1.385       .  A
C3130      H3139   1.083       .  S
C3131      C3132   1.418       .  A
C3131      S3135   1.811       .  S
C3132      C3133   1.395       .  A
C3133      C3134   1.394       .  A
C3133      H3140   1.083       .  S
C3134      S3136   1.810       .  S
S3135      H3138   1.406       .  S
S3136      H3137   1.406       .  S
C3141      C3142   1.397       .  A
C3141      C3146   1.423       .  A
C3142      C3143   1.394       .  A
C3142      H3151   1.083       .  S
C3143      C3144   1.417       .  A
C3143      S3147   1.801   1_545  S
C3144      C3145   1.402       .  A
C3145      C3146   1.406       .  A
C3145      H3152   1.083       .  S
C3146      S3148   1.807       .  S
S3147      H3150   1.406       .  S
S3148      H3149   1.407       .  S
C3153      C3154   1.397       .  A
C3153      C3158   1.409       .  A
C3154      C3155   1.396       .  A
C3154      H3163   1.083       .  S
C3155      C3156   1.417       .  A
C3155      S3159   1.810       .  S
C3156      C3157   1.401       .  A
C3157      C3158   1.392       .  A
C3157      H3164   1.083       .  S
C3158      S3160   1.802       .  S
S3159      H3162   1.406       .  S
S3160      H3161   1.408       .  S
C3165      C3166   1.422       .  A
C3165      C3170   1.414   1_545  A
C3166      C3167   1.390       .  A
C3166      H3175   1.082       .  S
C3167      C3168   1.392       .  A
C3167      S3171   1.800       .  S
C3168      C3169   1.407   1_545  A
C3169      C3170   1.405       .  A
C3169      H3176   1.082       .  S
C3170      S3172   1.806       .  S
S3171      H3174   1.407       .  S
S3172      H3173   1.407       .  S
C3177      C3178   1.404       .  A
C3177      C3182   1.413       .  A
C3178      C3179   1.409       .  A
C3178      H3187   1.084       .  S
C3179      C3180   1.422       .  A
C3179      S3183   1.802       .  S
C3180      C3181   1.401       .  A
C3181      C3182   1.383       .  A
C3181      H3188   1.081       .  S
C3182      S3184   1.808       .  S
S3183      H3186   1.403       .  S
S3184      H3185   1.408       .  S
C3189      C3190   1.408       .  A
C3189      C3194   1.406       .  A
C3190      C3191   1.400       .  A
C3190      H3199   1.084   1_545  S
C3191      C3192   1.409       .  A
C3191      S3195   1.804       .  S
C3192      C3193   1.404       .  A
C3193      C3194   1.378       .  A
C3193      H3200   1.085       .  S
C3194      S3196   1.807       .  S
S3195      H3198   1.406       .  S
S3196      H3197   1.408       .  S
C3201      C3202   1.404       .  A
C3201      C3206   1.412       .  A
C3202      C3203   1.393       .  A
C3202      H3211   1.084       .  S
C3203      C3204   1.405       .  A
C3203      S3207   1.803       .  S
C3204      C3205   1.401       .  A
C3205      C3206   1.394       .  A
C3205      H3212   1.084       .  S
C3206      S3208   1.810       .  S
S3207      H3210   1.407       .  S
S3208      H3209   1.407       .  S
C3213      C3214   1.395       .  A
C3213      C3218   1.404       .  A
C3214      C3215   1.395       .  A
C3214      H3223   1.084       .  S
C3215      C3216   1.422       .  A
C3215      S3219   1.808       .  S
C3216      C3217   1.407       .  A
C3217      C3218   1.384       .  A
C3217      H3224   1.083       .  S
C3218      S3220   1.806       .  S
S3219      H3222   1.407       .  S
S3220      H3221   1.402       .  S
C3225      C3226   1.394       .  A
C3225      C3230   1.410       .  A
C3226      C3227   1.388       .  A
C3226      H3235   1.083       .  S
C3227      C3228   1.418       .  A
C3227      S3231   1.810       .  S
C3228      C3229   1.403       .  A
C3229      C3230   1.398       .  A
C3229      H3236   1.083       .  S
C3230      S3232   1.800       .  S
S3231      H3234   1.406       .  S
S3232      H3233   1.407       .  S
C3237      C3238   1.401       .  A
C3237      C3242   1.416       .  A
C3238      C3239   1.389       .  A
C3238      H3247   1.084       .  S
C3239      C3240   1.415       .  A
C3239      S3243   1.810       .  S
C3240      C3241   1.399       .  A
C3241      C3242   1.399       .  A
C3241      H3248   1.083       .  S
C3242      S3244   1.808       .  S
S3243      H3246   1.405       .  S
S3244      H3245   1.407       .  S
C3249      C3250   1.410       .  A
C3249      C3254   1.403       .  A
C3250      C3251   1.387       .  A
C3250      H3259   1.081       .  S
C3251      C3252   1.407       .  A
C3251      S3255   1.800       .  S
C3252      C3253   1.406       .  A
C3253      C3254   1.405       .  A
C3253      H3260   1.081       .  S
C3254      S3256   1.794       .  S
S3255      H3258   1.404       .  S
S3256      H3257   1.406       .  S
C3261      C3262   1.394       .  A
C3261      C3266   1.412       .  A
C3262      C3263   1.397       .  A
C3262      H3271   1.083       .  S
C3263      C3264   1.421       .  A
C3263      S3267   1.806       .  S
C3264      C3265   1.397   1_565  A
C3265      C3266   1.400   1_545  A
C3265      H3272   1.079       .  S
C3266      S3268   1.800   1_565  S
S3267      H3270   1.406       .  S
S3268      H3269   1.406       .  S
C3273      C3274   1.406       .  A
C3273      C3278   1.413   1_565  A
C3274      C3275   1.382   1_565  A
C3274      H3283   1.079       .  S
C3275      C3276   1.412       .  A
C3275      S3279   1.816       .  S
C3276      C3277   1.402       .  A
C3277      C3278   1.402       .  A
C3277      H3284   1.083       .  S
C3278      S3280   1.800   1_655  S
S3279      H3282   1.406   1_545  S
S3280      H3281   1.401       .  S
C3285      C3286   1.401   1_556  A
C3285      C3290   1.413       .  A
C3286      C3287   1.398   1_554  A
C3286      H3295   1.084       .  S
C3287      C3288   1.411       .  A
C3287      S3291   1.803       .  S
C3288      C3289   1.399       .  A
C3289      C3290   1.392       .  A
C3289      H3296   1.083       .  S
C3290      S3292   1.806   1_655  S
S3291      H3294   1.407       .  S
S3292      H3293   1.407       .  S
C3297      C3298   1.392   1_455  A
C3297      C3302   1.425       .  A
C3298      C3299   1.391       .  A
C3298      H3307   1.083       .  S
C3299      C3300   1.422       .  A
C3299      S3303   1.805       .  S
C3300      C3301   1.395   1_655  A
C3301      C3302   1.399       .  A
C3301      H3308   1.084       .  S
C3302      S3304   1.806       .  S
S3303      H3306   1.407       .  S
S3304      H3305   1.403       .  S
C3309      C3310   1.388       .  A
C3309      C3314   1.405       .  A
C3310      C3311   1.388       .  A
C3310      H3319   1.084       .  S
C3311      C3312   1.423       .  A
C3311      S3315   1.804       .  S
C3312      C3313   1.399       .  A
C3313      C3314   1.387       .  A
C3313      H3320   1.084   1_556  S
C3314      S3316   1.799   1_456  S
S3315      H3318   1.407       .  S
S3316      H3317   1.408       .  S
C3321      C3322   1.401   1_565  A
C3321      C3326   1.403       .  A
C3322      C3323   1.396       .  A
C3322      H3331   1.083       .  S
C3323      C3324   1.409       .  A
C3323      S3327   1.807       .  S
C3324      C3325   1.406       .  A
C3325      C3326   1.395   1_545  A
C3325      H3332   1.084       .  S
C3326      S3328   1.802       .  S
S3327      H3330   1.406       .  S
S3328      H3329   1.407       .  S
C3333      C3334   1.410       .  A
C3333      C3338   1.422   1_554  A
C3334      C3335   1.407       .  A
C3334      H3343   1.083       .  S
C3335      C3336   1.409       .  A
C3335      S3339   1.804       .  S
C3336      C3337   1.398   1_554  A
C3337      C3338   1.387       .  A
C3337      H3344   1.084       .  S
C3338      S3340   1.809       .  S
S3339      H3342   1.407       .  S
S3340      H3341   1.408       .  S
C3345      C3346   1.398       .  A
C3345      C3350   1.412       .  A
C3346      C3347   1.397       .  A
C3346      H3355   1.083   1_554  S
C3347      C3348   1.411       .  A
C3347      S3351   1.807       .  S
C3348      C3349   1.401       .  A
C3349      C3350   1.401       .  A
C3349      H3356   1.082       .  S
C3350      S3352   1.809   1_565  S
S3351      H3354   1.407       .  S
S3352      H3353   1.407       .  S
C3357      C3358   1.408       .  A
C3357      C3362   1.417       .  A
C3358      C3359   1.387       .  A
C3358      H3367   1.082       .  S
C3359      C3360   1.405       .  A
C3359      S3363   1.813       .  S
C3360      C3361   1.404       .  A
C3361      C3362   1.406       .  A
C3361      H3368   1.083       .  S
C3362      S3364   1.800       .  S
S3363      H3366   1.407       .  S
S3364      H3365   1.407       .  S
C3369      C3370   1.395       .  A
C3369      C3374   1.408       .  A
C3370      C3371   1.396       .  A
C3370      H3379   1.083       .  S
C3371      C3372   1.421       .  A
C3371      S3375   1.810       .  S
C3372      C3373   1.393       .  A
C3373      C3374   1.392       .  A
C3373      H3380   1.082       .  S
C3374      S3376   1.790       .  S
S3375      H3378   1.407       .  S
S3376      H3377   1.407       .  S
C3381      C3382   1.399       .  A
C3381      C3386   1.403       .  A
C3382      C3383   1.396       .  A
C3382      H3391   1.084       .  S
C3383      C3384   1.411       .  A
C3383      S3387   1.806       .  S
C3384      C3385   1.403       .  A
C3385      C3386   1.385       .  A
C3385      H3392   1.084       .  S
C3386      S3388   1.800       .  S
S3387      H3390   1.407       .  S
S3388      H3389   1.406       .  S
