geometry optimzed in LAMMPS
_audit_creation_date              2020-11-30 
_audit_creation_method            'lammps2cif' 
_symmetry_space_group_name_H-M    'P1' 
_symmetry_Int_Tables_number       1 
_symmetry_cell_setting            triclinic 
loop_ 
_symmetry_equiv_pos_as_xyz 
  x,y,z 
_cell_length_a                    56.49838348 
_cell_length_b                    34.08079764297601 
_cell_length_c                    37.92411067636248 
_cell_angle_alpha                 84.90959321273534 
_cell_angle_beta                  110.78977357501577 
_cell_angle_gamma                 91.31925021944434 
loop_ 
_atom_site_label 
_atom_site_type_symbol 
_atom_site_fract_x 
_atom_site_fract_y 
_atom_site_fract_z 
_atom_site_charge 
N1          N  0.46399586  0.49958651  0.32700460    -0.03200
C2          C  0.48256160  0.49759483  0.36183306    -0.00600
C3          C  0.49709011  0.53130501  0.36572023    -0.23500
C4          C  0.48708180  0.55496095  0.33263715    -0.23700
C5          C  0.46682204  0.53496763  0.30955308    -0.00700
H6          H  0.51181344  0.53951967  0.39121248     0.13100
H7          H  0.49283493  0.58465571  0.32700381     0.13100
N8          N  0.49906838  0.50011720  0.64714855    -0.03200
C9          C  0.48282576  0.49383648  0.61181823    -0.00600
C10         C  0.46440950  0.52296085  0.59891246    -0.23500
C11         C  0.46949871  0.54825146  0.62677818    -0.23700
C12         C  0.49090624  0.53386503  0.65598345    -0.00700
H13         H  0.45029553  0.52747203  0.57075761     0.13100
H14         H  0.45961645  0.57561970  0.62491094     0.13100
In15       In  0.58740977  0.77998607  0.90007919     1.36900
C16         C  0.55207971  0.77362294  0.93142601     0.77900
O17         O  0.59882027  0.83857316  0.92217749    -0.60600
O18         O  0.57531893  0.83830310  0.86446144    -0.51500
C19         C  0.63704792  0.76410173  0.92502385     0.70500
O20         O  0.62394574  0.75855745  0.94603844    -0.46400
C21         C  0.57097758  0.72380261  0.85294806     0.75200
O22         O  0.57516565  0.76573595  0.95043513    -0.58200
O23         O  0.57610227  0.75806010  0.84202216    -0.48300
O24         O  0.54754997  0.78459479  0.89699177    -0.54600
C25         C  0.58693973  0.85865405  0.89166811     0.85400
O26         O  0.62454519  0.77718393  0.89149281    -0.56500
O27         O  0.57469378  0.71835546  0.88782909    -0.59800
In28       In  0.87607118  0.69480010  0.04905726     1.36900
C29         C  0.90963973  0.71143489  0.01487460     0.77900
O30         O  0.87870133  0.75519770  0.06960726    -0.60600
O31         O  0.89442846  0.70741207  0.11028613    -0.51500
C32         C  0.82599655  0.70905334  0.01949585     0.70500
O33         O  0.84149715  0.72627187  0.00642327    -0.46400
C34         C  0.88049009  0.61602249  0.05973246     0.75200
O35         O  0.88622375  0.70836334  0.99672430    -0.58200
O36         O  0.88208163  0.63735723  0.08605678    -0.48300
O37         O  0.91564548  0.70585816  0.05028296    -0.54600
C38         C  0.89037593  0.74409591  0.10392994     0.85400
O39         O  0.83611336  0.68395715  0.04700495    -0.56500
O40         O  0.87646306  0.63512349  0.02807339    -0.59800
In41       In  0.59169976  0.23109886  0.91187971     1.36900
C42         C  0.55663415  0.24510189  0.94185341     0.77900
O43         O  0.58805920  0.29574162  0.89144231    -0.60600
O44         O  0.57656638  0.25406387  0.85052438    -0.51500
C45         C  0.64235374  0.23260798  0.94508383     0.70500
O46         O  0.62767545  0.23003824  0.96365355    -0.46400
C47         C  0.58649494  0.15424117  0.90094111     0.75200
O48         O  0.57950909  0.25484608  0.95688687    -0.58200
O49         O  0.58352898  0.18066477  0.87419895    -0.48300
O50         O  0.55209267  0.22798157  0.91206140    -0.54600
C51         C  0.57865491  0.28997526  0.85679065     0.85400
O52         O  0.63098721  0.23585124  0.90975319    -0.56500
O53         O  0.59194732  0.16738789  0.93289378    -0.59800
In54       In  0.88433794  0.23851237  0.08632205     1.36900
C55         C  0.91866014  0.23555891  0.05304330     0.77900
O56         O  0.87536198  0.29935764  0.05745277    -0.60600
O57         O  0.89484094  0.29447622  0.11678543    -0.51500
C58         C  0.83406259  0.22848776  0.06111918     0.70500
O59         O  0.84784586  0.21689744  0.04400626    -0.46400
C60         C  0.89949163  0.17959643  0.14167886     0.75200
O61         O  0.89523363  0.23168370  0.03523577    -0.58200
O62         O  0.89966217  0.21540442  0.14816212    -0.48300
O63         O  0.92440332  0.23896111  0.08791194    -0.54600
C64         C  0.88528297  0.31713341  0.08688440     0.85400
O65         O  0.84623243  0.24354549  0.09151590    -0.56500
O66         O  0.89127359  0.17418748  0.10687707    -0.59800
N67         N  0.94550211  0.94378884  0.33452095    -0.03200
C68         C  0.94954461  0.93804491  0.37219932    -0.00600
C69         C  0.95334405  0.89850166  0.38450338    -0.23500
C70         C  0.95167196  0.87902287  0.35368005    -0.23700
C71         C  0.94681190  0.90726437  0.32352158    -0.00700
H72         H  0.95739994  0.88535335  0.41310619     0.13100
H73         H  0.95315973  0.84750697  0.35304118     0.13100
N74         N  0.02633926  0.07812923  0.63756357    -0.03200
C75         C  0.01362666  0.08638188  0.59994353    -0.00600
C76         C  0.01609252  0.12566641  0.58934633    -0.23500
C77         C  0.03072401  0.14237258  0.62146864    -0.23700
C78         C  0.03665455  0.11269223  0.65053436    -0.00700
H79         H  0.00822940  0.14045751  0.56116326     0.13100
H80         H  0.03576476  0.17312355  0.62369156     0.13100
In81       In  0.37214372  0.80569417  0.05733481     1.36900
C82         C  0.40992112  0.79636578  0.03191928     0.77900
O83         O  0.36776748  0.86939993  0.03623275    -0.60600
O84         O  0.38346549  0.85517513  0.09562595    -0.51500
C85         C  0.32209917  0.80037612  0.02481203     0.70500
O86         O  0.33713223  0.79050085  0.00906392    -0.46400
C87         C  0.38070283  0.74285290  0.10687324     0.75200
O88         O  0.38740019  0.80324560  0.00985862    -0.58200
O89         O  0.38425851  0.77764613  0.11671542    -0.48300
O90         O  0.41292733  0.79478174  0.06649875    -0.54600
C91         C  0.37660618  0.88187280  0.06863992     0.85400
O92         O  0.33287040  0.81225623  0.05722797    -0.56500
O93         O  0.37162504  0.74059689  0.07153743    -0.59800
In94       In  0.08205101  0.77615332  0.87304000     1.36900
C95         C  0.04494783  0.77172595  0.90099283     0.77900
O96         O  0.06897553  0.83834343  0.85234164    -0.60600
O97         O  0.07166972  0.80090369  0.81213688    -0.51500
C98         C  0.13135425  0.78982536  0.90562468     0.70500
O99         O  0.11632837  0.78816661  0.92371979    -0.46400
C100        C  0.08473345  0.69877581  0.87081309     0.75200
O101        O  0.06505245  0.79055292  0.91633226    -0.58200
O102        O  0.07279350  0.72118536  0.84171412    -0.48300
O103        O  0.04383159  0.75701709  0.87114041    -0.54600
C104        C  0.06619373  0.83480679  0.81824781     0.85400
O105        O  0.12085050  0.78648567  0.87060870    -0.56500
O106        O  0.09604621  0.71637559  0.89991817    -0.59800
In107      In  0.38285846  0.25404947  0.08103895     1.36900
C108        C  0.41997521  0.26577052  0.05312822     0.77900
O109        O  0.38779812  0.31357079  0.10310747    -0.60600
O110        O  0.39714812  0.26385829  0.14326921    -0.51500
C111        C  0.33290768  0.26782360  0.05120437     0.70500
O112        O  0.34839997  0.28625434  0.03878015    -0.46400
C113        C  0.38462512  0.17603641  0.08319136     0.75200
O114        O  0.39704234  0.27347639  0.03332425    -0.58200
O115        O  0.38841827  0.19380269  0.11260965    -0.48300
O116        O  0.42363303  0.25400097  0.08711448    -0.54600
C117        C  0.39578332  0.30096128  0.13759259     0.85400
O118        O  0.34302460  0.24211361  0.07812489    -0.56500
O119        O  0.37945607  0.19836277  0.05300865    -0.59800
In120      In  0.09251628  0.32478983  0.91906901     1.36900
C121        C  0.05672188  0.30119592  0.94718414     0.77900
O122        O  0.09104165  0.38543453  0.93750972    -0.60600
O123        O  0.08211988  0.37992061  0.87914035    -0.51500
C124        C  0.14310785  0.31686034  0.95012682     0.70500
O125        O  0.12864742  0.30672951  0.96815214    -0.46400
C126        C  0.08431378  0.27313404  0.86789509     0.75200
O127        O  0.07919427  0.30812127  0.96789936    -0.58200
O128        O  0.07948685  0.30945653  0.85917237    -0.48300
O129        O  0.05261920  0.30678454  0.91223250    -0.54600
C130        C  0.08478616  0.40268418  0.90467559     0.85400
O131        O  0.13160658  0.33177871  0.91697190    -0.56500
O132        O  0.09349419  0.26342718  0.90304384    -0.59800
C133        C  0.21227485  0.31234997  0.95844209    -0.27300
C134        C  0.22423357  0.29693011  0.99610122     0.02300
C135        C  0.20940950  0.28936654  0.01906889     0.30300
C136        C  0.18310355  0.29628835  0.00392116    -0.19100
C137        C  0.17110140  0.31104395  0.96599607    -0.28500
C138        C  0.18610210  0.31938628  0.94337654     0.44400
C139        C  0.25214344  0.28931879  0.01070163     0.05600
O140        O  0.22064795  0.27716271  0.05679678    -0.57100
H141        H  0.17210463  0.29023857  0.02205072     0.18500
O142        O  0.17547356  0.33461749  0.90643386    -0.63800
H143        H  0.22327130  0.31853167  0.94031944     0.16900
C144        C  0.26254456  0.25249492  0.02897066     0.29200
C145        C  0.28878841  0.24612772  0.04206564    -0.24700
C146        C  0.30517683  0.27549561  0.03613274    -0.23900
C147        C  0.29477555  0.31188869  0.01682671     0.40700
C148        C  0.26856105  0.31866865  0.00466183    -0.26400
O149        O  0.24723182  0.22210754  0.03339449    -0.58300
H150        H  0.29631535  0.21772353  0.05636643     0.16300
O151        O  0.31009874  0.34159680  0.01096852    -0.59700
H152        H  0.26101977  0.34712368  0.99053201     0.14700
H153        H  0.17204117  0.31149678  0.89126589     0.46600
H154        H  0.24218772  0.20901197  0.00952443     0.42000
H155        H  0.31021562  0.33915449  0.98515027     0.45400
H156        H  0.21382845  0.25056897  0.06011183     0.36900
C157        C  0.10194771  0.59144557  0.90304985    -0.27300
C158        C  0.08126926  0.57239845  0.87827585     0.02300
C159        C  0.06223492  0.59497124  0.84979984     0.30300
C160        C  0.06400638  0.63618815  0.84661944    -0.19100
C161        C  0.08456547  0.65531756  0.87180013    -0.28500
C162        C  0.10372864  0.63248994  0.89999360     0.44400
C163        C  0.07982014  0.52895612  0.88320384     0.05600
O164        O  0.04119108  0.57713939  0.82646090    -0.57100
H165        H  0.04883106  0.65324958  0.82531084     0.18500
O166        O  0.12412491  0.64998588  0.92513375    -0.63800
H167        H  0.11674361  0.57433812  0.92501643     0.16900
C168        C  0.08174172  0.50534133  0.85572128     0.29200
C169        C  0.08240668  0.46420609  0.86247229    -0.24700
C170        C  0.08163681  0.44602348  0.89682365    -0.23900
C171        C  0.07905921  0.46981834  0.92388207     0.40700
C172        C  0.07831083  0.51089562  0.91702248    -0.26400
O173        O  0.08390454  0.52219487  0.82279608    -0.58300
H174        H  0.08445230  0.44655364  0.84131574     0.16300
O175        O  0.07765527  0.45335288  0.95740532    -0.59700
H176        H  0.07685544  0.52881298  0.93840193     0.14700
H177        H  0.13702319  0.65224056  0.91289794     0.46600
H178        H  0.10215828  0.52799124  0.82923531     0.42000
H179        H  0.05942357  0.44801152  0.95193659     0.45400
H180        H  0.04377952  0.57692794  0.80196788     0.36900
C181        C  0.39882101  0.98008182  0.10882631    -0.27300
C182        C  0.38222768  0.00641542  0.08083421     0.02300
C183        C  0.36330980  0.99128334  0.04973376     0.30300
C184        C  0.36173439  0.95073517  0.04629531    -0.19100
C185        C  0.37846542  0.92441058  0.07399080    -0.28500
C186        C  0.39697893  0.93932963  0.10565106     0.44400
C187        C  0.38496913  0.04964030  0.08334722     0.05600
O188        O  0.34623360  0.01595043  0.02245465    -0.57100
H189        H  0.34720498  0.93980753  0.02193859     0.18500
O190        O  0.41379377  0.91450844  0.13310482    -0.63800
H191        H  0.41361901  0.99117412  0.13275247     0.16900
C192        C  0.38468404  0.06736436  0.11537733     0.29200
C193        C  0.38508693  0.10856032  0.11536850    -0.24700
C194        C  0.38589537  0.13259957  0.08373804    -0.23900
C195        C  0.38740406  0.11464756  0.05245767     0.40700
C196        C  0.38691216  0.07363351  0.05247070    -0.26400
O197        O  0.38249178  0.04481285  0.14585049    -0.58300
H198        H  0.38406013  0.12170533  0.13977417     0.16300
O199        O  0.38902291  0.13682127  0.02140373    -0.59700
H200        H  0.38775573  0.06045059  0.02796324     0.14700
H201        H  0.42787694  0.91073454  0.12385585     0.46600
H202        H  0.39968457  0.04409093  0.16550512     0.42000
H203        H  0.40730788  0.14235261  0.02772795     0.45400
H204        H  0.33246160  0.02000645  0.03228355     0.36900
C205        C  0.19826725  0.78161506  0.97792813    -0.27300
C206        C  0.21253918  0.79762047  0.95653011     0.02300
C207        C  0.19986083  0.81209751  0.91859330     0.30300
C208        C  0.17342429  0.80974912  0.90245324    -0.19100
C209        C  0.15913410  0.79381162  0.92388093    -0.28500
C210        C  0.17182660  0.77968570  0.96196255     0.44400
C211        C  0.24061167  0.79851720  0.97392200     0.05600
O212        O  0.21314064  0.82874191  0.89710467    -0.57100
H213        H  0.16405091  0.82065216  0.87311410     0.18500
O214        O  0.15868559  0.76281994  0.98356203    -0.63800
H215        H  0.20771243  0.76980645  0.00696769     0.16900
C216        C  0.25261191  0.81654665  0.00768792     0.29200
C217        C  0.27908178  0.81675697  0.02384307    -0.24700
C218        C  0.29411440  0.79892615  0.00698785    -0.23900
C219        C  0.28206989  0.78057363  0.97331771     0.40700
C220        C  0.25556100  0.78063071  0.95700951    -0.26400
O221        O  0.23861858  0.83550964  0.02421570    -0.58300
H222        H  0.28784909  0.83134277  0.04953594     0.16300
O223        O  0.29594362  0.76253726  0.95603192    -0.59700
H224        H  0.24661776  0.76620724  0.93126162     0.14700
H225        H  0.15709564  0.73465688  0.97843998     0.46600
H226        H  0.23911566  0.81784583  0.04671240     0.42000
H227        H  0.29723863  0.73450587  0.96615647     0.45400
H228        H  0.21377015  0.85724451  0.90081055     0.36900
C229        C  0.07976762  0.15901529  0.73557722    -0.27300
C230        C  0.06418090  0.15928567  0.75720136     0.02300
C231        C  0.04180534  0.13709606  0.74723257     0.30300
C232        C  0.03414085  0.11785335  0.71387548    -0.19100
C233        C  0.04865462  0.12072303  0.69047596    -0.28500
C234        C  0.07217943  0.13971116  0.70244136     0.44400
C235        C  0.06945363  0.18771281  0.78607544     0.05600
O236        O  0.02606667  0.13758168  0.76762890    -0.57100
H237        H  0.01583792  0.10369973  0.70463027     0.18500
O238        O  0.08687588  0.14227832  0.68030305    -0.63800
H239        H  0.09708915  0.17588226  0.74319142     0.16900
C240        C  0.07753104  0.17550473  0.82486444     0.29200
C241        C  0.08245674  0.20363791  0.85128749    -0.24700
C242        C  0.07937537  0.24411551  0.83941583    -0.23900
C243        C  0.07136032  0.25613924  0.80037095     0.40700
C244        C  0.06647233  0.22798534  0.77412832    -0.26400
O245        O  0.08063904  0.13624742  0.83714738    -0.58300
H246        H  0.08858919  0.19370700  0.88111576     0.16300
O247        O  0.06801067  0.29522961  0.78740474    -0.59700
H248        H  0.06022444  0.23760022  0.74419966     0.14700
H249        H  0.09629740  0.11690975  0.68617438     0.46600
H250        H  0.09857196  0.13020798  0.84141768     0.42000
H251        H  0.08462632  0.30402606  0.78643110     0.45400
H252        H  0.03025053  0.11316290  0.78497974     0.36900
C253        C  0.01378411  0.98218431  0.68506947    -0.27300
C254        C  0.03853908  0.96988378  0.70741531     0.02300
C255        C  0.05907955  0.99284169  0.70539181     0.30300
C256        C  0.05479139  0.02775526  0.68158793    -0.19100
C257        C  0.03009911  0.04046428  0.65948256    -0.28500
C258        C  0.00948136  0.01725580  0.66113511     0.44400
C259        C  0.04310608  0.93415773  0.73427311     0.05600
O260        O  0.08344320  0.98150012  0.72691316    -0.57100
H261        H  0.07079330  0.04534022  0.68060657     0.18500
O262        O  0.98510845  0.02909870  0.64035709    -0.63800
H263        H  0.99781513  0.96486582  0.68665470     0.16900
C264        C  0.04240851  0.93628013  0.77072366     0.29200
C265        C  0.04961481  0.90358006  0.79745200    -0.24700
C266        C  0.05744348  0.86811482  0.78838954    -0.23900
C267        C  0.05738969  0.86574422  0.75134564     0.40700
C268        C  0.05033244  0.89868167  0.72469622    -0.26400
O269        O  0.03578891  0.97079427  0.78100847    -0.58300
H270        H  0.04939629  0.90624391  0.82558897     0.16300
O271        O  0.06449704  0.83166651  0.74095330    -0.59700
H272        H  0.05102088  0.89680916  0.69670354     0.14700
H273        H  0.98126813  0.04987811  0.65431604     0.46600
H274        H  0.01718987  0.96939923  0.77454334     0.42000
H275        H  0.08270630  0.83493049  0.74480673     0.45400
H276        H  0.08704017  0.99317540  0.75129296     0.36900
C277        C  0.98136172  0.01242831  0.44085943    -0.27300
C278        C  0.96874632  0.00583820  0.46678372     0.02300
C279        C  0.94673813  0.98280183  0.45717674     0.30300
C280        C  0.93901972  0.96394329  0.42368997    -0.19100
C281        C  0.95280492  0.96808586  0.39920203    -0.28500
C282        C  0.97345887  0.99383083  0.40713398     0.44400
C283        C  0.97933035  0.02175582  0.50430120     0.05600
O284        O  0.93351836  0.97666783  0.48130256    -0.57100
H285        H  0.92315949  0.94394144  0.41798111     0.18500
O286        O  0.98758681  0.99777607  0.38419730    -0.63800
H287        H  0.99799012  0.03085885  0.44749950     0.16900
C288        C  0.00444846  0.01297594  0.52850294     0.29200
C289        C  0.01488277  0.03114612  0.56233620    -0.24700
C290        C  0.00059826  0.05844804  0.57203055    -0.23900
C291        C  0.97506892  0.06530835  0.54911186     0.40700
C292        C  0.96455985  0.04693416  0.51553194    -0.26400
O293        O  0.01895822  0.98700736  0.51903644    -0.58300
H294        H  0.03462514  0.02597730  0.57962842     0.16300
O295        O  0.96078122  0.09199473  0.55814670    -0.59700
H296        H  0.94520647  0.05382009  0.49735422     0.14700
H297        H  0.98164411  0.02278515  0.36822148     0.46600
H298        H  0.03081086  0.00356330  0.51028478     0.42000
H299        H  0.95066443  0.07594568  0.57066722     0.45400
H300        H  0.94229266  0.95435918  0.49955631     0.36900
C301        C  0.01930607  0.28156798  0.01276714    -0.27300
C302        C  0.99768506  0.26261990  0.98974074     0.02300
C303        C  0.99584006  0.25601148  0.95263974     0.30300
C304        C  0.01507996  0.26885927  0.93909603    -0.19100
C305        C  0.03672513  0.28764217  0.96229465    -0.28500
C306        C  0.03875022  0.29365145  0.99952477     0.44400
C307        C  0.97694032  0.25145451  0.00442695     0.05600
O308        O  0.97539894  0.23684717  0.92941294    -0.57100
H309        H  0.01318016  0.26366980  0.91044144     0.18500
O310        O  0.05944616  0.31197259  0.02311489    -0.63800
H311        H  0.02094947  0.28785460  0.04102494     0.16900
C312        C  0.98223372  0.23173042  0.04076093     0.29200
C313        C  0.96288734  0.22549378  0.05572683    -0.24700
C314        C  0.93794987  0.23797391  0.03476241    -0.23900
C315        C  0.93238425  0.25601421  0.99779606     0.40700
C316        C  0.95178028  0.26281037  0.98301918    -0.26400
O317        O  0.00617780  0.21771190  0.06149329    -0.58300
H318        H  0.96747594  0.21116156  0.08404634     0.16300
O319        O  0.90829210  0.26888069  0.97651033    -0.59700
H320        H  0.94726085  0.27842694  0.95525423     0.14700
H321        H  0.05545584  0.34054781  0.01750754     0.46600
H322        H  0.01263412  0.23415333  0.08320624     0.42000
H323        H  0.90709261  0.29573976  0.98393233     0.45400
H324        H  0.97967968  0.20841110  0.93571808     0.36900
C325        C  0.91760179  0.04129770  0.28297533    -0.27300
C326        C  0.93106242  0.04822411  0.25820907     0.02300
C327        C  0.95049763  0.02169188  0.26086243     0.30300
C328        C  0.95556295  0.98826053  0.28692283    -0.19100
C329        C  0.94144035  0.98042751  0.31064805    -0.28500
C330        C  0.92265191  0.00773209  0.30904052     0.44400
C331        C  0.92375943  0.08198507  0.22846944     0.05600
O332        O  0.96492412  0.02864899  0.23853561    -0.57100
H333        H  0.97043381  0.96801117  0.28836443     0.18500
O334        O  0.90795856  0.00044736  0.33089047    -0.63800
H335        H  0.90250870  0.06129536  0.28118731     0.16900
C336        C  0.91415320  0.07548047  0.18974967     0.29200
C337        C  0.90654080  0.10739649  0.16202606    -0.24700
C338        C  0.90816919  0.14643919  0.17203025    -0.23900
C339        C  0.91805161  0.15290367  0.21088462     0.40700
C340        C  0.92547069  0.12086123  0.23864292    -0.26400
O341        O  0.91170052  0.03790984  0.17865731    -0.58300
H342        H  0.89908914  0.10143825  0.13250774     0.16300
O343        O  0.92030522  0.19034724  0.22219645    -0.59700
H344        H  0.93273116  0.12640207  0.26827811     0.14700
H345        H  0.91295372  0.02043379  0.34963118     0.46600
H346        H  0.89539335  0.02837908  0.18039396     0.42000
H347        H  0.93759837  0.19871209  0.22401715     0.45400
H348        H  0.95962709  0.00869266  0.21977586     0.36900
C349        C  0.48365240  0.25169924  0.04249305    -0.27300
C350        C  0.47952733  0.27016317  0.00624763     0.02300
C351        C  0.45595956  0.28881642  0.98601222     0.30300
C352        C  0.43684509  0.28786819  0.00170500    -0.19100
C353        C  0.44085715  0.26875679  0.03778389    -0.28500
C354        C  0.46469187  0.25093915  0.05829857     0.44400
C355        C  0.49918894  0.26679371  0.98888583     0.05600
O356        O  0.45125942  0.30752893  0.95062621    -0.57100
H357        H  0.41875583  0.30180553  0.98542880     0.18500
O358        O  0.46926481  0.23064311  0.09298138    -0.63800
H359        H  0.50140397  0.23648895  0.05817182     0.16900
C360        C  0.52465398  0.27679608  0.00790383     0.29200
C361        C  0.54314854  0.26990066  0.99228798    -0.24700
C362        C  0.53671526  0.25301072  0.95760951    -0.23900
C363        C  0.51111525  0.24363672  0.93839235     0.40700
C364        C  0.49270411  0.25065957  0.95395945    -0.26400
O365        O  0.53169103  0.29307248  0.04190322    -0.58300
H366        H  0.56261217  0.27753204  0.00754934     0.16300
O367        O  0.50374464  0.22759083  0.90425953    -0.59700
H368        H  0.47331723  0.24231479  0.93911328     0.14700
H369        H  0.47768126  0.24975522  0.11172405     0.46600
H370        H  0.53016602  0.32195654  0.03529654     0.42000
H371        H  0.50418900  0.19868783  0.91060257     0.45400
H372        H  0.45921554  0.33377148  0.95506572     0.36900
C373        C  0.71256930  0.23164083  0.95872227    -0.27300
C374        C  0.72397600  0.22435695  0.99815806     0.02300
C375        C  0.70833060  0.22033660  0.02013013     0.30300
C376        C  0.68189735  0.22374116  0.00265741    -0.19100
C377        C  0.67047272  0.23086499  0.96312109    -0.28500
C378        C  0.68619606  0.23488036  0.94121910     0.44400
C379        C  0.75217791  0.22295199  0.01592650     0.05600
O380        O  0.71866553  0.21271322  0.05869582    -0.57100
H381        H  0.67030284  0.22029742  0.02014364     0.18500
O382        O  0.67606020  0.24164958  0.90256244    -0.63800
H383        H  0.72420922  0.23554105  0.94133614     0.16900
C384        C  0.76696238  0.19845882  0.00358210     0.29200
C385        C  0.79355936  0.20005586  0.01876376    -0.24700
C386        C  0.80591601  0.22580898  0.04646202    -0.23900
C387        C  0.79104168  0.24984859  0.05914430     0.40700
C388        C  0.76454167  0.24818376  0.04402519    -0.26400
O389        O  0.75555588  0.17205220  0.97749036    -0.58300
H390        H  0.80452942  0.18106636  0.00880478     0.16300
O391        O  0.80214293  0.27598341  0.08562468    -0.59700
H392        H  0.75357581  0.26767267  0.05351002     0.14700
H393        H  0.67564878  0.27071950  0.89742530     0.46600
H394        H  0.75766429  0.18302653  0.95368219     0.42000
H395        H  0.80425480  0.30050214  0.07091598     0.45400
H396        H  0.71904364  0.18357796  0.06323075     0.36900
C397        C  0.94056174  0.73595725  0.94112406    -0.27300
C398        C  0.96605954  0.74005980  0.96416390     0.02300
C399        C  0.97277297  0.73422164  0.00377168     0.30300
C400        C  0.95421633  0.72507296  0.01966094    -0.19100
C401        C  0.92870246  0.72092213  0.99670682    -0.28500
C402        C  0.92202606  0.72605127  0.95701193     0.44400
C403        C  0.98562769  0.74949484  0.94681600     0.05600
O404        O  0.99751164  0.73690173  0.02731351    -0.57100
H405        H  0.95992193  0.72100049  0.05020662     0.18500
O406        O  0.89744894  0.72189335  0.93340651    -0.63800
H407        H  0.93493687  0.74059467  0.91062021     0.16900
C408        C  0.98789126  0.72700361  0.91874440     0.29200
C409        C  0.00709555  0.73514196  0.90398458    -0.24700
C410        C  0.02442446  0.76561091  0.91666211    -0.23900
C411        C  0.02197431  0.78858139  0.94430512     0.40700
C412        C  0.00267447  0.78049423  0.95907680    -0.26400
O413        O  0.97232487  0.69554397  0.90708942    -0.58300
H414        H  0.00873500  0.71678956  0.88303138     0.16300
O415        O  0.03832592  0.81881855  0.95723932    -0.59700
H416        H  0.00103467  0.79849016  0.98026785     0.14700
H417        H  0.89620597  0.69418122  0.92691870     0.46600
H418        H  0.96071421  0.70409304  0.88112469     0.42000
H419        H  0.03089353  0.84205232  0.93928320     0.45400
H420        H  0.00532366  0.71107591  0.02753225     0.36900
C421        C  0.90172050  0.42305307  0.11194640    -0.27300
C422        C  0.88505862  0.44464147  0.07965867     0.02300
C423        C  0.86825259  0.42386877  0.05050532     0.30300
C424        C  0.86865284  0.38262042  0.05342948    -0.19100
C425        C  0.88533241  0.36092932  0.08556167    -0.28500
C426        C  0.90192255  0.38159973  0.11506220     0.44400
C427        C  0.88536150  0.48865628  0.07599805     0.05600
O428        O  0.85114303  0.44363556  0.01901981    -0.57100
H429        H  0.85559611  0.36752356  0.03045184     0.18500
O430        O  0.91868493  0.36171594  0.14679277    -0.63800
H431        H  0.91496912  0.43836350  0.13454145     0.16900
C432        C  0.88264610  0.51082584  0.10402883     0.29200
C433        C  0.88141828  0.55218473  0.09861828    -0.24700
C434        C  0.88287369  0.57227510  0.06542127    -0.23900
C435        C  0.88619632  0.55004666  0.03780175     0.40700
C436        C  0.88756578  0.50879624  0.04334035    -0.26400
O437        O  0.87980057  0.49229777  0.13587618    -0.58300
H438        H  0.87878378  0.56852971  0.12020038     0.16300
O439        O  0.88862014  0.56828222  0.00554593    -0.59700
H440        H  0.89018939  0.49238477  0.02178407     0.14700
H441        H  0.93397308  0.35743554  0.14048696     0.46600
H442        H  0.89633944  0.49506131  0.15648751     0.42000
H443        H  0.87149688  0.56755667  0.98585331     0.45400
H444        H  0.83635560  0.44892627  0.02623523     0.36900
C445        C  0.94976475  0.85461268  0.24244441    -0.27300
C446        C  0.92411385  0.85479930  0.21919165     0.02300
C447        C  0.90681382  0.87826988  0.22740797     0.30300
C448        C  0.91503050  0.89903818  0.25990491    -0.19100
C449        C  0.94032630  0.89646942  0.28443949    -0.28500
C450        C  0.95789810  0.87521513  0.27487620     0.44400
C451        C  0.91536677  0.82698731  0.18926812     0.05600
O452        O  0.88148235  0.87776230  0.20614248    -0.57100
H453        H  0.90125222  0.91452664  0.26754214     0.18500
O454        O  0.98271721  0.87203141  0.29859851    -0.63800
H455        H  0.96329608  0.83683701  0.23640167     0.16900
C456        C  0.90266201  0.84009114  0.15104310     0.29200
C457        C  0.89441001  0.81278177  0.12370599    -0.24700
C458        C  0.89884526  0.77211853  0.13378663    -0.23900
C459        C  0.91177207  0.75915564  0.17214366     0.40700
C460        C  0.91984385  0.78647734  0.19941974    -0.26400
O461        O  0.89847174  0.87952101  0.14005364    -0.58300
H462        H  0.88469899  0.82357614  0.09443058     0.16300
O463        O  0.91633134  0.71985462  0.18350059    -0.59700
H464        H  0.92952408  0.77593686  0.22879450     0.14700
H465        H  0.99092144  0.89617475  0.29202018     0.46600
H466        H  0.91355143  0.88871079  0.13421559     0.42000
H467        H  0.93354190  0.71481806  0.18350139     0.45400
H468        H  0.87779235  0.90375531  0.19124483     0.36900
C469        C  0.47167618  0.76057859  0.02651762    -0.27300
C470        C  0.47165508  0.78063565  0.99245128     0.02300
C471        C  0.45115527  0.80639418  0.97189587     0.30300
C472        C  0.43091216  0.81035597  0.98449236    -0.19100
C473        C  0.43115548  0.79063647  0.01862117    -0.28500
C474        C  0.45197362  0.76606748  0.04001010     0.44400
C475        C  0.49275247  0.77468504  0.97821023     0.05600
O476        O  0.45089213  0.82858043  0.93976253    -0.57100
H477        H  0.41531644  0.82995627  0.96807184     0.18500
O478        O  0.45317091  0.74692255  0.07399330    -0.63800
H479        H  0.48684464  0.74019111  0.04264871     0.16900
C480        C  0.51849165  0.77496333  0.00208709     0.29200
C481        C  0.53771177  0.77297754  0.98680767    -0.24700
C482        C  0.53177604  0.77109373  0.94778948    -0.23900
C483        C  0.50612947  0.76885640  0.92430258     0.40700
C484        C  0.48702620  0.77008321  0.93960057    -0.26400
O485        O  0.52510604  0.77992750  0.03987319    -0.58300
H486        H  0.55729327  0.77466637  0.00535218     0.16300
O487        O  0.49938315  0.76631731  0.88608515    -0.59700
H488        H  0.46751435  0.76814239  0.92087196     0.14700
H489        H  0.44411797  0.72178443  0.06753374     0.46600
H490        H  0.53217422  0.75413469  0.05328809     0.42000
H491        H  0.49968762  0.73776387  0.88301516     0.45400
H492        H  0.46137856  0.85190132  0.94887310     0.36900
C493        C  0.57993766  0.05515063  0.85844068    -0.27300
C494        C  0.58188798  0.02880532  0.89005820     0.02300
C495        C  0.58399757  0.04419568  0.92434090     0.30300
C496        C  0.58524480  0.08489172  0.92713497    -0.19100
C497        C  0.58402666  0.11134519  0.89594733    -0.28500
C498        C  0.58099971  0.09609288  0.86116027     0.44400
C499        C  0.58339397  0.98544759  0.88819163     0.05600
O500        O  0.58509009  0.01958879  0.95554041    -0.57100
H501        H  0.58727629  0.09573595  0.95405367     0.18500
O502        O  0.57939819  0.12075457  0.82977978    -0.63800
H503        H  0.57838884  0.04394592  0.83186318     0.16900
C504        C  0.56492390  0.96506378  0.86050049     0.29200
C505        C  0.56664338  0.92388004  0.86088470    -0.24700
C506        C  0.58649164  0.90240868  0.88896342    -0.23900
C507        C  0.60529442  0.92310026  0.91586970     0.40700
C508        C  0.60366412  0.96402629  0.91524589    -0.26400
O509        O  0.54477895  0.98489937  0.83363084    -0.58300
H510        H  0.55197589  0.90860803  0.83996687     0.16300
O511        O  0.62535920  0.90361153  0.94325489    -0.59700
H512        H  0.61835870  0.97917213  0.93625495     0.14700
H513        H  0.59703653  0.12342683  0.83031583     0.46600
H514        H  0.53164498  0.98559755  0.84530569     0.42000
H515        H  0.63844088  0.90192872  0.93159762     0.45400
H516        H  0.56728257  0.01673782  0.95416353     0.36900
C517        C  0.70412562  0.74901022  0.92644902    -0.27300
C518        C  0.71785256  0.74213514  0.96536908     0.02300
C519        C  0.70493613  0.74320136  0.99098730     0.30300
C520        C  0.67868056  0.75018803  0.97751399    -0.19100
C521        C  0.66482310  0.75640217  0.93852583    -0.28500
C522        C  0.67790215  0.75590430  0.91294928     0.44400
C523        C  0.74554299  0.73344587  0.97881109     0.05600
O524        O  0.71805672  0.73926211  0.02930230    -0.57100
H525        H  0.66920640  0.75118741  0.99774738     0.18500
O526        O  0.66530138  0.76199315  0.87462545    -0.63800
H527        H  0.71373743  0.74837548  0.90634187     0.16900
C528        C  0.75575578  0.69852717  0.00148830     0.29200
C529        C  0.78187008  0.69109154  0.01442175    -0.24700
C530        C  0.79832969  0.71760284  0.00444879    -0.23900
C531        C  0.78805534  0.75218897  0.98102458     0.40700
C532        C  0.76189083  0.75977332  0.96832425    -0.26400
O533        O  0.74031779  0.67109876  0.01077362    -0.58300
H534        H  0.78923291  0.66416774  0.03206518     0.16300
O535        O  0.80337328  0.77905936  0.97070549    -0.59700
H536        H  0.75437225  0.78663018  0.95065979     0.14700
H537        H  0.65989659  0.73546333  0.86613447     0.46600
H538        H  0.73386941  0.65505088  0.98881364     0.42000
H539        H  0.80911829  0.79684242  0.99140400     0.45400
H540        H  0.71241764  0.71402399  0.03870285     0.36900
C541        C  0.55843864  0.39092108  0.80299665    -0.27300
C542        C  0.55106173  0.38152641  0.76533799     0.02300
C543        C  0.55385426  0.34247851  0.75802511     0.30300
C544        C  0.56350525  0.31333637  0.78806933    -0.19100
C545        C  0.57027707  0.32229436  0.82586017    -0.28500
C546        C  0.56793105  0.36170048  0.83315867     0.44400
C547        C  0.53824997  0.41165264  0.73387833     0.05600
O548        O  0.54725670  0.33261199  0.72149032    -0.57100
H549        H  0.56528340  0.28343485  0.78165953     0.18500
O550        O  0.57356887  0.37166852  0.86947782    -0.63800
H551        H  0.55600702  0.42075894  0.80899195     0.16900
C552        C  0.51223420  0.40846327  0.71310837     0.29200
C553        C  0.50001129  0.43689113  0.68366345    -0.24700
C554        C  0.51318303  0.46937585  0.67471709    -0.23900
C555        C  0.53919340  0.47286826  0.69551196     0.40700
C556        C  0.55162670  0.44395903  0.72487862    -0.26400
O557        O  0.49844910  0.37803443  0.72197527    -0.58300
H558        H  0.47987020  0.43438802  0.66844552     0.16300
O559        O  0.55254685  0.50404095  0.68690844    -0.59700
H560        H  0.57165824  0.44679681  0.74070444     0.14700
H561        H  0.59112510  0.38172917  0.87716232     0.46600
H562        H  0.49309756  0.38711838  0.74215379     0.42000
H563        H  0.55641935  0.52088102  0.70822630     0.45400
H564        H  0.53054466  0.31971865  0.71569618     0.36900
C565        C  0.52407099  0.62061479  0.70805196    -0.27300
C566        C  0.53003812  0.60662432  0.74612694     0.02300
C567        C  0.52375442  0.56746095  0.75476712     0.30300
C568        C  0.51145960  0.54332528  0.72547972    -0.19100
C569        C  0.50544234  0.55770906  0.68743677    -0.28500
C570        C  0.51201972  0.59663307  0.67897874     0.44400
C571        C  0.54211078  0.63398562  0.77592851     0.05600
O572        O  0.52945334  0.55255081  0.79164577    -0.57100
H573        H  0.50629509  0.51363827  0.73248504     0.18500
O574        O  0.50717665  0.61129329  0.64216814    -0.63800
H575        H  0.52839891  0.65067243  0.70065504     0.16900
C576        C  0.56312624  0.65690763  0.77525278     0.29200
C577        C  0.57216787  0.68635520  0.80015283    -0.24700
C578        C  0.56122551  0.69248026  0.82708589    -0.23900
C579        C  0.54103759  0.66844305  0.82911530     0.40700
C580        C  0.53138576  0.63986874  0.80331258    -0.26400
O581        O  0.57487411  0.65093367  0.75011247    -0.58300
H582        H  0.58801089  0.70413410  0.79875091     0.16300
O583        O  0.52960016  0.67432674  0.85466804    -0.59700
H584        H  0.51500300  0.62311598  0.80399914     0.14700
H585        H  0.49273022  0.62987756  0.63601717     0.46600
H586        H  0.58748484  0.62965856  0.76283437     0.42000
H587        H  0.53771184  0.65495691  0.87659095     0.45400
H588        H  0.54683498  0.54158862  0.79948782     0.36900
C589        C  0.42158886  0.34083109  0.23486121    -0.27300
C590        C  0.41897787  0.38166763  0.22510697     0.02300
C591        C  0.40800392  0.39553535  0.18664330     0.30300
C592        C  0.40028289  0.36882538  0.15874121    -0.19100
C593        C  0.40312342  0.32796757  0.16834297    -0.28500
C594        C  0.41355278  0.31405261  0.20694389     0.44400
C595        C  0.42946116  0.40952655  0.25488517     0.05600
O596        O  0.40632122  0.43520007  0.17587033    -0.57100
H597        H  0.39244255  0.38033375  0.12932866     0.18500
O598        O  0.41672724  0.27447349  0.21774043    -0.63800
H599        H  0.43009087  0.32967475  0.26429808     0.16900
C600        C  0.41452477  0.43980908  0.25963871     0.29200
C601        C  0.42565273  0.46792011  0.28541726    -0.24700
C602        C  0.45167272  0.46643201  0.30681766    -0.23900
C603        C  0.46632397  0.43512073  0.30317934     0.40700
C604        C  0.45517854  0.40685929  0.27772692    -0.26400
O605        O  0.38916743  0.44276238  0.23860689    -0.58300
H606        H  0.41407558  0.49156339  0.28795805     0.16300
O607        O  0.49191753  0.43319451  0.32275562    -0.59700
H608        H  0.46697309  0.38384444  0.27446482     0.14700
H609        H  0.40103987  0.26613681  0.22226061     0.46600
H610        H  0.38091028  0.42362739  0.25174199     0.42000
H611        H  0.49955468  0.44985827  0.30687314     0.45400
H612        H  0.38796030  0.44161361  0.16599845     0.36900
C613        C  0.39522101  0.63693318  0.14973677    -0.27300
C614        C  0.40710317  0.64254934  0.18821407     0.02300
C615        C  0.40891530  0.68089673  0.19995569     0.30300
C616        C  0.39936928  0.71304446  0.17326597    -0.19100
C617        C  0.38789953  0.70773120  0.13458743    -0.28500
C618        C  0.38544666  0.66908104  0.12299841     0.44400
C619        C  0.41935946  0.60892290  0.21574510     0.05600
O620        O  0.42167072  0.68747169  0.23711874    -0.57100
H621        H  0.40174687  0.74238306  0.18285969     0.18500
O622        O  0.37453840  0.66241998  0.08551935    -0.63800
H623        H  0.39388730  0.60757148  0.14036080     0.16900
C624        C  0.41159165  0.59761364  0.24653030     0.29200
C625        C  0.42613915  0.57037304  0.27566313    -0.24700
C626        C  0.44840134  0.55416221  0.27440870    -0.23900
C627        C  0.45519749  0.56345800  0.24243766     0.40700
C628        C  0.44065879  0.59061024  0.21326601    -0.26400
O629        O  0.39006728  0.61360362  0.24852500    -0.58300
H630        H  0.42086048  0.56371270  0.30035145     0.16300
O631        O  0.47690225  0.54807273  0.24061464    -0.59700
H632        H  0.44680312  0.59903230  0.18966860     0.14700
H633        H  0.35633038  0.65835249  0.08123704     0.46600
H634        H  0.39595101  0.63060026  0.26986070     0.42000
H635        H  0.47221758  0.52142222  0.23195670     0.45400
H636        H  0.40856416  0.69593067  0.24670952     0.36900
C637        C  0.50598983  0.44855324  0.46099614    -0.27300
C638        C  0.48469135  0.45316679  0.47133287     0.02300
C639        C  0.46136650  0.46427834  0.44242433     0.30300
C640        C  0.46019839  0.47328603  0.40495632    -0.19100
C641        C  0.48209372  0.47270423  0.39572229    -0.28500
C642        C  0.50487298  0.45854882  0.42373723     0.44400
C643        C  0.48803886  0.45342909  0.51236671     0.05600
O644        O  0.44042882  0.47172091  0.45118729    -0.57100
H645        H  0.44269330  0.48512962  0.38404069     0.18500
O646        O  0.52672124  0.45798654  0.41579990    -0.63800
H647        H  0.52405539  0.43986720  0.48247419     0.16900
C648        C  0.47043790  0.43592711  0.52758078     0.29200
C649        C  0.47052258  0.44563646  0.56286945    -0.24700
C650        C  0.48874260  0.47121401  0.58432817    -0.23900
C651        C  0.50831971  0.48431498  0.57151136     0.40700
C652        C  0.50772849  0.47579233  0.53571314    -0.26400
O653        O  0.45217312  0.41115590  0.50734711    -0.58300
H654        H  0.45530403  0.43533099  0.57232668     0.16300
O655        O  0.52614954  0.50990233  0.59139206    -0.59700
H656        H  0.52164484  0.48942562  0.52504311     0.14700
H657        H  0.52711496  0.43174926  0.40662319     0.46600
H658        H  0.46080910  0.38531187  0.51099552     0.42000
H659        H  0.54084994  0.49304837  0.60703898     0.45400
H660        H  0.42793529  0.45144134  0.43942934     0.36900
loop_ 
_geom_bond_atom_site_label_1 
_geom_bond_atom_site_label_2 
_geom_bond_distance 
_geom_bond_site_symmetry_2 
_ccdc_geom_bond_type 
N1            C5   1.357       .  A
N1            C2   1.361       .  A
N1          C602   1.444       .  S
C2            C3   1.384       .  A
C2          C641   1.484       .  S
C3            C4   1.372       .  A
C3            H6   1.082       .  S
C4            C5   1.378       .  A
C4            H7   1.082       .  S
C5          C626   1.476       .  S
N8           C12   1.360       .  A
N8            C9   1.361       .  A
N8          C554   1.442       .  S
C9           C10   1.381       .  A
C9          C650   1.482       .  S
C10          C11   1.370       .  A
C10          H13   1.082       .  S
C11          C12   1.382       .  A
C11          H14   1.082       .  S
C12         C569   1.484       .  S
In15         O17   2.227       .  S
In15         O18   2.274       .  S
In15         O26   2.240       .  S
In15         O20   2.263       .  S
In15         O22   2.263       .  S
In15         O23   2.255       .  S
In15         O24   2.222       .  S
In15         O27   2.238       .  S
C16         C482   1.483       .  S
C16          O22   1.268       .  A
C16          O24   1.261       .  A
O17          C25   1.260       .  A
O18          C25   1.266       .  A
C19         C521   1.489       .  S
C19          O26   1.261       .  A
C19          O20   1.267       .  A
C21         C578   1.477       .  S
C21          O23   1.266       .  A
C21          O27   1.261       .  A
C25         C506   1.486       .  S
In28         O30   2.248       .  S
In28         O31   2.258       .  S
In28         O39   2.254       .  S
In28         O33   2.264       .  S
In28         O35   2.262   1_554  S
In28         O36   2.263       .  S
In28         O37   2.244       .  S
In28         O40   2.252       .  S
C29         C401   1.487   1_554  S
C29          O35   1.263   1_554  A
C29          O37   1.260       .  A
O30          C38   1.260       .  A
O31          C38   1.263       .  A
C32         C530   1.487       .  S
C32          O39   1.260       .  A
C32          O33   1.261       .  A
C34         C434   1.490       .  S
C34          O36   1.263       .  A
C34          O40   1.261       .  A
C38         C458   1.486       .  S
In41         O43   2.259       .  S
In41         O44   2.248       .  S
In41         O52   2.251       .  S
In41         O46   2.268       .  S
In41         O48   2.269       .  S
In41         O49   2.267       .  S
In41         O50   2.240       .  S
In41         O53   2.244       .  S
C42         C362   1.489       .  S
C42          O48   1.263       .  A
C42          O50   1.260       .  A
O43          C51   1.262       .  A
O44          C51   1.262       .  A
C45         C377   1.490       .  S
C45          O52   1.259       .  A
C45          O46   1.262       .  A
C47         C497   1.488       .  S
C47          O49   1.262       .  A
C47          O53   1.261       .  A
C51         C545   1.488       .  S
In54         O56   2.238       .  S
In54         O57   2.275       .  S
In54         O65   2.242       .  S
In54         O59   2.272       .  S
In54         O61   2.263       .  S
In54         O62   2.265       .  S
In54         O63   2.243       .  S
In54         O66   2.255       .  S
C55         C314   1.482       .  S
C55          O61   1.264       .  A
C55          O63   1.260       .  A
O56          C64   1.260       .  A
O57          C64   1.266       .  A
C58         C386   1.490       .  S
C58          O65   1.261       .  A
C58          O59   1.266       .  A
C60         C338   1.495       .  S
C60          O62   1.265       .  A
C60          O66   1.263       .  A
C64         C425   1.489       .  S
N67          C71   1.359       .  A
N67          C68   1.361       .  A
N67         C329   1.448       .  S
C68          C69   1.382       .  A
C68         C281   1.475       .  S
C69          C70   1.368       .  A
C69          H72   1.083       .  S
C70          C71   1.380       .  A
C70          H73   1.082       .  S
C71         C449   1.474       .  S
N74          C78   1.355       .  A
N74          C75   1.357       .  A
N74         C257   1.443       .  S
C75          C76   1.382       .  A
C75         C290   1.470       .  S
C76          C77   1.370       .  A
C76          H79   1.082       .  S
C77          C78   1.381       .  A
C77          H80   1.082       .  S
C78         C233   1.471       .  S
In81         O83   2.234       .  S
In81         O84   2.255       .  S
In81         O92   2.234       .  S
In81         O86   2.254       .  S
In81         O88   2.263       .  S
In81         O89   2.238       .  S
In81         O90   2.240       .  S
In81         O93   2.238       .  S
C82         C473   1.480       .  S
C82          O88   1.264       .  A
C82          O90   1.257       .  A
O83          C91   1.260       .  A
O84          C91   1.263       .  A
C85         C218   1.484       .  S
C85          O92   1.262       .  A
C85          O86   1.265       .  A
C87         C617   1.483       .  S
C87          O89   1.265       .  A
C87          O93   1.262       .  A
C91         C185   1.478       .  S
In94         O96   2.240       .  S
In94         O97   2.260       .  S
In94        O105   2.245       .  S
In94         O99   2.252       .  S
In94        O101   2.268       .  S
In94        O102   2.259       .  S
In94        O103   2.220       .  S
In94        O106   2.224       .  S
C95         C410   1.482       .  S
C95         O101   1.266       .  A
C95         O103   1.259       .  A
O96         C104   1.262       .  A
O97         C104   1.265       .  A
C98         C209   1.482       .  S
C98         O105   1.262       .  A
C98          O99   1.265       .  A
C100        C161   1.478       .  S
C100        O102   1.266       .  A
C100        O106   1.259       .  A
C104        C266   1.488       .  S
In107       O109   2.237       .  S
In107       O110   2.260       .  S
In107       O118   2.243       .  S
In107       O112   2.266       .  S
In107       O114   2.269       .  S
In107       O115   2.253       .  S
In107       O116   2.232       .  S
In107       O119   2.228       .  S
C108        C353   1.487       .  S
C108        O114   1.266       .  A
C108        O116   1.260       .  A
O109        C117   1.261       .  A
O110        C117   1.263       .  A
C111        C146   1.485       .  S
C111        O118   1.260       .  A
C111        O112   1.264       .  A
C113        C194   1.482       .  S
C113        O115   1.265       .  A
C113        O119   1.262       .  A
C117        C593   1.486       .  S
In120       O122   2.252       .  S
In120       O123   2.255       .  S
In120       O131   2.245       .  S
In120       O125   2.273       .  S
In120       O127   2.259       .  S
In120       O128   2.232       .  S
In120       O129   2.253       .  S
In120       O132   2.236       .  S
C121        C305   1.486       .  S
C121        O127   1.263       .  A
C121        O129   1.259       .  A
O122        C130   1.260       .  A
O123        C130   1.260       .  A
C124        C137   1.490       .  S
C124        O131   1.258       .  A
C124        O125   1.263       .  A
C126        C242   1.478       .  S
C126        O128   1.263       .  A
C126        O132   1.263       .  A
C130        C170   1.483       .  S
C133        C134   1.404       .  A
C133        C138   1.401       .  A
C133        H143   1.084       .  S
C134        C135   1.412   1_556  A
C134        C139   1.495   1_556  S
C135        C136   1.407       .  A
C135        O140   1.373       .  S
C136        C137   1.406   1_554  A
C136        H141   1.083       .  S
C137        C138   1.413       .  A
C138        O142   1.371       .  S
C139        C144   1.411       .  A
C139        C148   1.407       .  A
O140        H156   0.992       .  S
O142        H153   0.992       .  S
C144        C145   1.402       .  A
C144        O149   1.371       .  S
C145        C146   1.405       .  A
C145        H150   1.084       .  S
C146        C147   1.410       .  A
C147        C148   1.404       .  A
C147        O151   1.371       .  S
C148        H152   1.083   1_554  S
O149        H154   0.991       .  S
O151        H155   0.992   1_554  S
C157        C158   1.401       .  A
C157        C162   1.398       .  A
C157        H167   1.084       .  S
C158        C159   1.407       .  A
C158        C163   1.480       .  S
C159        C160   1.403       .  A
C159        O164   1.372       .  S
C160        C161   1.405       .  A
C160        H165   1.084       .  S
C161        C162   1.411       .  A
C162        O166   1.372       .  S
C163        C168   1.407       .  A
C163        C172   1.402       .  A
O164        H180   0.991       .  S
O166        H177   0.992       .  S
C168        C169   1.402       .  A
C168        O173   1.372       .  S
C169        C170   1.407       .  A
C169        H174   1.083       .  S
C170        C171   1.411       .  A
C171        C172   1.400       .  A
C171        O175   1.371       .  S
C172        H176   1.084       .  S
O173        H178   0.991       .  S
O175        H179   0.992       .  S
C181        C182   1.405   1_565  A
C181        C186   1.403       .  A
C181        H191   1.083       .  S
C182        C183   1.410   1_545  A
C182        C187   1.486       .  S
C183        C184   1.397       .  A
C183        O188   1.372   1_565  S
C184        C185   1.403       .  A
C184        H189   1.084       .  S
C185        C186   1.409       .  A
C186        O190   1.371       .  S
C187        C192   1.409       .  A
C187        C196   1.403       .  A
O188        H204   0.992       .  S
O190        H201   0.992       .  S
C192        C193   1.404       .  A
C192        O197   1.372       .  S
C193        C194   1.405       .  A
C193        H198   1.083       .  S
C194        C195   1.411       .  A
C195        C196   1.397       .  A
C195        O199   1.372       .  S
C196        H200   1.084       .  S
O197        H202   0.992       .  S
O199        H203   0.992       .  S
C205        C206   1.404       .  A
C205        C210   1.401       .  A
C205        H215   1.083   1_556  S
C206        C207   1.409       .  A
C206        C211   1.487       .  S
C207        C208   1.402       .  A
C207        O212   1.372       .  S
C208        C209   1.405       .  A
C208        H213   1.083       .  S
C209        C210   1.410       .  A
C210        O214   1.372       .  S
C211        C216   1.408   1_556  A
C211        C220   1.405       .  A
O212        H228   0.992       .  S
O214        H225   0.992       .  S
C216        C217   1.401       .  A
C216        O221   1.372       .  S
C217        C218   1.406       .  A
C217        H222   1.083       .  S
C218        C219   1.411   1_554  A
C219        C220   1.403       .  A
C219        O223   1.371       .  S
C220        H224   1.083       .  S
O221        H226   0.992       .  S
O223        H227   0.992       .  S
C229        C230   1.401       .  A
C229        C234   1.395       .  A
C229        H239   1.084       .  S
C230        C231   1.407       .  A
C230        C235   1.473       .  S
C231        C232   1.401       .  A
C231        O236   1.371       .  S
C232        C233   1.402       .  A
C232        H237   1.084       .  S
C233        C234   1.406       .  A
C234        O238   1.371       .  S
C235        C240   1.403       .  A
C235        C244   1.401       .  A
O236        H252   0.991       .  S
O238        H249   0.992       .  S
C240        C241   1.400       .  A
C240        O245   1.371       .  S
C241        C242   1.408       .  A
C241        H246   1.083       .  S
C242        C243   1.411       .  A
C243        C244   1.396       .  A
C243        O247   1.372       .  S
C244        H248   1.084       .  S
O245        H250   0.991       .  S
O247        H251   0.991       .  S
C253        C254   1.404       .  A
C253        C258   1.406   1_565  A
C253        H263   1.083   1_455  S
C254        C255   1.406       .  A
C254        C259   1.481       .  S
C255        C256   1.399   1_565  A
C255        O260   1.372       .  S
C256        C257   1.403       .  A
C256        H261   1.083       .  S
C257        C258   1.410       .  A
C258        O262   1.371   1_455  S
C259        C264   1.405       .  A
C259        C268   1.402       .  A
O260        H276   0.991       .  S
O262        H273   0.992       .  S
C264        C265   1.401       .  A
C264        O269   1.371       .  S
C265        C266   1.407       .  A
C265        H270   1.083       .  S
C266        C267   1.413       .  A
C267        C268   1.405       .  A
C267        O271   1.371       .  S
C268        H272   1.084       .  S
O269        H274   0.992       .  S
O271        H275   0.991       .  S
C277        C278   1.406       .  A
C277        C282   1.401   1_545  A
C277        H287   1.083       .  S
C278        C279   1.407   1_545  A
C278        C283   1.481       .  S
C279        C280   1.398       .  A
C279        O284   1.372       .  S
C280        C281   1.405       .  A
C280        H285   1.084       .  S
C281        C282   1.404       .  A
C282        O286   1.371       .  S
C283        C288   1.411   1_655  A
C283        C292   1.402       .  A
O284        H300   0.992       .  S
O286        H297   0.992   1_565  S
C288        C289   1.402       .  A
C288        O293   1.372   1_545  S
C289        C290   1.399       .  A
C289        H294   1.084       .  S
C290        C291   1.407   1_455  A
C291        C292   1.398       .  A
C291        O295   1.372       .  S
C292        H296   1.083       .  S
O293        H298   0.992   1_565  S
O295        H299   0.992       .  S
C301        C302   1.407   1_454  A
C301        C306   1.401   1_554  A
C301        H311   1.083       .  S
C302        C303   1.412       .  A
C302        C307   1.495   1_556  S
C303        C304   1.404   1_655  A
C303        O308   1.372       .  S
C304        C305   1.407       .  A
C304        H309   1.084       .  S
C305        C306   1.409       .  A
C306        O310   1.371   1_556  S
C307        C312   1.412       .  A
C307        C316   1.407   1_554  A
O308        H324   0.992       .  S
O310        H321   0.992       .  S
C312        C313   1.404       .  A
C312        O317   1.373   1_655  S
C313        C314   1.404       .  A
C313        H318   1.084       .  S
C314        C315   1.409   1_554  A
C315        C316   1.403       .  A
C315        O319   1.372       .  S
C316        H320   1.083       .  S
O317        H322   0.992       .  S
O319        H323   0.992       .  S
C325        C326   1.406       .  A
C325        C330   1.408       .  A
C325        H335   1.083       .  S
C326        C327   1.409       .  A
C326        C331   1.492       .  S
C327        C328   1.404   1_545  A
C327        O332   1.372       .  S
C328        C329   1.405       .  A
C328        H333   1.083       .  S
C329        C330   1.409   1_565  A
C330        O334   1.371       .  S
C331        C336   1.409       .  A
C331        C340   1.404       .  A
O332        H348   0.992       .  S
O334        H345   0.992       .  S
C336        C337   1.404       .  A
C336        O341   1.372       .  S
C337        C338   1.408       .  A
C337        H342   1.083       .  S
C338        C339   1.414       .  A
C339        C340   1.407       .  A
C339        O343   1.371       .  S
C340        H344   1.083       .  S
O341        H346   0.992       .  S
O343        H347   0.992       .  S
C349        C350   1.402       .  A
C349        C354   1.400       .  A
C349        H359   1.084       .  S
C350        C351   1.412   1_554  A
C350        C355   1.490   1_554  S
C351        C352   1.405   1_556  A
C351        O356   1.372       .  S
C352        C353   1.406       .  A
C352        H357   1.083   1_554  S
C353        C354   1.413       .  A
C354        O358   1.371       .  S
C355        C360   1.411   1_556  A
C355        C364   1.402       .  A
O356        H372   0.992       .  S
O358        H369   0.992       .  S
C360        C361   1.405   1_554  A
C360        O365   1.372       .  S
C361        C362   1.407       .  A
C361        H366   1.083   1_556  S
C362        C363   1.413       .  A
C363        C364   1.400       .  A
C363        O367   1.371       .  S
C364        H368   1.083       .  S
O365        H370   0.992       .  S
O367        H371   0.992       .  S
C373        C374   1.404       .  A
C373        C378   1.402       .  A
C373        H383   1.083       .  S
C374        C375   1.411   1_556  A
C374        C379   1.494   1_556  S
C375        C376   1.405       .  A
C375        O380   1.371       .  S
C376        C377   1.407   1_554  A
C376        H381   1.083       .  S
C377        C378   1.413       .  A
C378        O382   1.371       .  S
C379        C384   1.412       .  A
C379        C388   1.403       .  A
O380        H396   0.992       .  S
O382        H393   0.992       .  S
C384        C385   1.407       .  A
C384        O389   1.372   1_554  S
C385        C386   1.406       .  A
C385        H390   1.083       .  S
C386        C387   1.413       .  A
C387        C388   1.402       .  A
C387        O391   1.372       .  S
C388        H392   1.083       .  S
O389        H394   0.992       .  S
O391        H395   0.992       .  S
C397        C398   1.406       .  A
C397        C402   1.403       .  A
C397        H407   1.083       .  S
C398        C399   1.409   1_556  A
C398        C403   1.490       .  S
C399        C400   1.400       .  A
C399        O404   1.372       .  S
C400        C401   1.406   1_554  A
C400        H405   1.083       .  S
C401        C402   1.411       .  A
C402        O406   1.371       .  S
C403        C408   1.408       .  A
C403        C412   1.408   1_655  A
O404        H420   0.992   1_655  S
O406        H417   0.992       .  S
C408        C409   1.399   1_655  A
C408        O413   1.372       .  S
C409        C410   1.406       .  A
C409        H414   1.084       .  S
C410        C411   1.409       .  A
C411        C412   1.404       .  A
C411        O415   1.371       .  S
C412        H416   1.083       .  S
O413        H418   0.992       .  S
O415        H419   0.992       .  S
C421        C422   1.407       .  A
C421        C426   1.407       .  A
C421        H431   1.083       .  S
C422        C423   1.410       .  A
C422        C427   1.494       .  S
C423        C424   1.400       .  A
C423        O428   1.372       .  S
C424        C425   1.406       .  A
C424        H429   1.084       .  S
C425        C426   1.411       .  A
C426        O430   1.371       .  S
C427        C432   1.410       .  A
C427        C436   1.405       .  A
O428        H444   0.992       .  S
O430        H441   0.992       .  S
C432        C433   1.406       .  A
C432        O437   1.372       .  S
C433        C434   1.407       .  A
C433        H438   1.083       .  S
C434        C435   1.412       .  A
C435        C436   1.403       .  A
C435        O439   1.372       .  S
C436        H440   1.084       .  S
O437        H442   0.992       .  S
O439        H443   0.992   1_554  S
C445        C446   1.404       .  A
C445        C450   1.398       .  A
C445        H455   1.084       .  S
C446        C447   1.410       .  A
C446        C451   1.484       .  S
C447        C448   1.403       .  A
C447        O452   1.371       .  S
C448        C449   1.401       .  A
C448        H453   1.084       .  S
C449        C450   1.406       .  A
C450        O454   1.372       .  S
C451        C456   1.406       .  A
C451        C460   1.404       .  A
O452        H468   0.992       .  S
O454        H465   0.991       .  S
C456        C457   1.402       .  A
C456        O461   1.371       .  S
C457        C458   1.408       .  A
C457        H462   1.083       .  S
C458        C459   1.411       .  A
C459        C460   1.401       .  A
C459        O463   1.371       .  S
C460        H464   1.084       .  S
O461        H466   0.991       .  S
O463        H467   0.991       .  S
C469        C470   1.407   1_554  A
C469        C474   1.402       .  A
C469        H479   1.082       .  S
C470        C471   1.416       .  A
C470        C475   1.497       .  S
C471        C472   1.400       .  A
C471        O476   1.372       .  S
C472        C473   1.400   1_556  A
C472        H477   1.084       .  S
C473        C474   1.411       .  A
C474        O478   1.372       .  S
C475        C480   1.415   1_556  A
C475        C484   1.405       .  A
O476        H492   0.992       .  S
O478        H489   0.992       .  S
C480        C481   1.406   1_554  A
C480        O485   1.372       .  S
C481        C482   1.403       .  A
C481        H486   1.083   1_556  S
C482        C483   1.411       .  A
C483        C484   1.398       .  A
C483        O487   1.372       .  S
C484        H488   1.083       .  S
O485        H490   0.992       .  S
O487        H491   0.992       .  S
C493        C494   1.406       .  A
C493        C498   1.407       .  A
C493        H503   1.083       .  S
C494        C495   1.410       .  A
C494        C499   1.491   1_545  S
C495        C496   1.399       .  A
C495        O500   1.372       .  S
C496        C497   1.404       .  A
C496        H501   1.083       .  S
C497        C498   1.413       .  A
C498        O502   1.371       .  S
C499        C504   1.412       .  A
C499        C508   1.403       .  A
O500        H516   0.992       .  S
O502        H513   0.992       .  S
C504        C505   1.408       .  A
C504        O509   1.371       .  S
C505        C506   1.407       .  A
C505        H510   1.083       .  S
C506        C507   1.411       .  A
C507        C508   1.397       .  A
C507        O511   1.372       .  S
C508        H512   1.084       .  S
O509        H514   0.992       .  S
O511        H515   0.992       .  S
C517        C518   1.403       .  A
C517        C522   1.403       .  A
C517        H527   1.084       .  S
C518        C519   1.410       .  A
C518        C523   1.491       .  S
C519        C520   1.405       .  A
C519        O524   1.373   1_556  S
C520        C521   1.405       .  A
C520        H525   1.083       .  S
C521        C522   1.414       .  A
C522        O526   1.372       .  S
C523        C528   1.409   1_556  A
C523        C532   1.406       .  A
O524        H540   0.991       .  S
O526        H537   0.992       .  S
C528        C529   1.401       .  A
C528        O533   1.371       .  S
C529        C530   1.405       .  A
C529        H534   1.083       .  S
C530        C531   1.412   1_554  A
C531        C532   1.405       .  A
C531        O535   1.372       .  S
C532        H536   1.084       .  S
O533        H538   0.991   1_554  S
O535        H539   0.992       .  S
C541        C542   1.403       .  A
C541        C546   1.405       .  A
C541        H551   1.084       .  S
C542        C543   1.407       .  A
C542        C547   1.485       .  S
C543        C544   1.402       .  A
C543        O548   1.372       .  S
C544        C545   1.406       .  A
C544        H549   1.083       .  S
C545        C546   1.414       .  A
C546        O550   1.371       .  S
C547        C552   1.407       .  A
C547        C556   1.406       .  A
O548        H564   0.992       .  S
O550        H561   0.992       .  S
C552        C553   1.398       .  A
C552        O557   1.372       .  S
C553        C554   1.403       .  A
C553        H558   1.083       .  S
C554        C555   1.408       .  A
C555        C556   1.409       .  A
C555        O559   1.371       .  S
C556        H560   1.083       .  S
O557        H562   0.992       .  S
O559        H563   0.991       .  S
C565        C566   1.402       .  A
C565        C570   1.396       .  A
C565        H575   1.084       .  S
C566        C567   1.414       .  A
C566        C571   1.491       .  S
C567        C568   1.407       .  A
C567        O572   1.371       .  S
C568        C569   1.404       .  A
C568        H573   1.083       .  S
C569        C570   1.410       .  A
C570        O574   1.373       .  S
C571        C576   1.413       .  A
C571        C580   1.405       .  A
O572        H588   0.991       .  S
O574        H585   0.992       .  S
C576        C577   1.401       .  A
C576        O581   1.371       .  S
C577        C578   1.400       .  A
C577        H582   1.084       .  S
C578        C579   1.409       .  A
C579        C580   1.403       .  A
C579        O583   1.372       .  S
C580        H584   1.083       .  S
O581        H586   0.992       .  S
O583        H587   0.992       .  S
C589        C590   1.405       .  A
C589        C594   1.404       .  A
C589        H599   1.084       .  S
C590        C591   1.409       .  A
C590        C595   1.489       .  S
C591        C592   1.401       .  A
C591        O596   1.372       .  S
C592        C593   1.406       .  A
C592        H597   1.083       .  S
C593        C594   1.412       .  A
C594        O598   1.371       .  S
C595        C600   1.411       .  A
C595        C604   1.403       .  A
O596        H612   0.992       .  S
O598        H609   0.992       .  S
C600        C601   1.404       .  A
C600        O605   1.371       .  S
C601        C602   1.404       .  A
C601        H606   1.081       .  S
C602        C603   1.411       .  A
C603        C604   1.401       .  A
C603        O607   1.371       .  S
C604        H608   1.084       .  S
O605        H610   0.992       .  S
O607        H611   0.992       .  S
C613        C614   1.402       .  A
C613        C618   1.402       .  A
C613        H623   1.084       .  S
C614        C615   1.408       .  A
C614        C619   1.481       .  S
C615        C616   1.400       .  A
C615        O620   1.372       .  S
C616        C617   1.404       .  A
C616        H621   1.083       .  S
C617        C618   1.414       .  A
C618        O622   1.371       .  S
C619        C624   1.407       .  A
C619        C628   1.404       .  A
O620        H636   0.992       .  S
O622        H633   0.991       .  S
C624        C625   1.402       .  A
C624        O629   1.373       .  S
C625        C626   1.403       .  A
C625        H630   1.084       .  S
C626        C627   1.405       .  A
C627        C628   1.401       .  A
C627        O631   1.371       .  S
C628        H632   1.084       .  S
O629        H634   0.992       .  S
O631        H635   0.991       .  S
C637        C638   1.407       .  A
C637        C642   1.403       .  A
C637        H647   1.083       .  S
C638        C639   1.416       .  A
C638        C643   1.500       .  S
C639        C640   1.405       .  A
C639        O644   1.372       .  S
C640        C641   1.401       .  A
C640        H645   1.084       .  S
C641        C642   1.409       .  A
C642        O646   1.371       .  S
C643        C648   1.413       .  A
C643        C652   1.408       .  A
O644        H660   0.992       .  S
O646        H657   0.991       .  S
C648        C649   1.405       .  A
C648        O653   1.371       .  S
C649        C650   1.404       .  A
C649        H654   1.083       .  S
C650        C651   1.407       .  A
C651        C652   1.402       .  A
C651        O655   1.371       .  S
C652        H656   1.083       .  S
O653        H658   0.992       .  S
O655        H659   0.992       .  S
