geometry optimzed in LAMMPS
_audit_creation_date              2020-11-30 
_audit_creation_method            'lammps2cif' 
_symmetry_space_group_name_H-M    'P1' 
_symmetry_Int_Tables_number       1 
_symmetry_cell_setting            triclinic 
loop_ 
_symmetry_equiv_pos_as_xyz 
  x,y,z 
_cell_length_a                    29.88468991 
_cell_length_b                    30.002025469081687 
_cell_length_c                    32.58472728177062 
_cell_angle_alpha                 90.16416416838537 
_cell_angle_beta                  90.17668761229481 
_cell_angle_gamma                 90.08053687056798 
loop_ 
_atom_site_label 
_atom_site_type_symbol 
_atom_site_fract_x 
_atom_site_fract_y 
_atom_site_fract_z 
_atom_site_charge 
N1          N  0.50112305  0.42629688  0.77168525    -0.35700
N2          N  0.43306025  0.49569020  0.76599147    -0.56200
N3          N  0.50142595  0.56528110  0.77039296    -0.35700
N4          N  0.56977825  0.49581072  0.77331626    -0.56200
C5          C  0.46493443  0.40193554  0.76004682     0.27900
C6          C  0.53799078  0.40217705  0.76200027     0.27900
C7          C  0.46585415  0.58944035  0.75733433     0.27900
C8          C  0.53861969  0.58974368  0.76284548     0.27900
C9          C  0.40604085  0.45973648  0.76991115     0.36500
C10         C  0.40631768  0.53202791  0.76714112     0.36500
C11         C  0.59646625  0.45962332  0.77676692     0.36500
C12         C  0.59653043  0.53190488  0.77777604     0.36500
C13         C  0.47898906  0.36131394  0.74431062    -0.21000
C14         C  0.52491524  0.36149444  0.74545680    -0.21000
C15         C  0.48056637  0.63040360  0.74292281    -0.21000
C16         C  0.52633840  0.63062872  0.74645577    -0.21000
C17         C  0.36201858  0.47338201  0.77445776    -0.22000
C18         C  0.36217636  0.51914158  0.77251985    -0.22000
C19         C  0.64025611  0.47278825  0.78411888    -0.22000
C20         C  0.64029953  0.51853574  0.78479284    -0.22000
C21         C  0.41954316  0.41521262  0.76293540    -0.17400
C22         C  0.58315694  0.41555840  0.76736404    -0.17400
C23         C  0.58341664  0.57625461  0.76969406    -0.17400
C24         C  0.42044783  0.57591095  0.75817774    -0.17400
H25         H  0.45835723  0.33453444  0.73241902     0.15500
H26         H  0.54622364  0.33481027  0.73466301     0.15500
H27         H  0.46052060  0.65725268  0.73056542     0.15500
H28         H  0.54810557  0.65761355  0.73715186     0.15500
H29         H  0.33263313  0.45245271  0.77701264     0.13800
H30         H  0.33298572  0.54042869  0.77351230     0.13800
H31         H  0.66942393  0.45165724  0.78695737     0.13800
H32         H  0.66954776  0.53956860  0.78819468     0.13800
H33         H  0.50055448  0.45638853  0.78756779     0.27100
H34         H  0.50027393  0.53501766  0.78575526     0.27100
N35         N  0.49133493  0.55928144  0.93704369    -0.35700
N36         N  0.55941782  0.48962878  0.93427724    -0.56200
N37         N  0.49139377  0.41971363  0.92664863    -0.35700
N38         N  0.42328538  0.48994115  0.93233358    -0.56200
C39         C  0.52759954  0.58244425  0.95024144     0.27900
C40         C  0.45464997  0.58267757  0.94846920     0.27900
C41         C  0.52781780  0.39490511  0.93624889     0.27900
C42         C  0.45480567  0.39516422  0.93633292     0.27900
C43         C  0.58641452  0.52590007  0.93481741     0.36500
C44         C  0.58640052  0.45385759  0.92925867     0.36500
C45         C  0.39640143  0.52622217  0.93067315     0.36500
C46         C  0.39656955  0.45394126  0.92680381     0.36500
C47         C  0.51379902  0.62173808  0.96884664    -0.21000
C48         C  0.46788493  0.62186276  0.96778437    -0.21000
C49         C  0.51416262  0.35327714  0.94988172    -0.21000
C50         C  0.46821247  0.35350030  0.95008334    -0.21000
C51         C  0.63054399  0.51315206  0.92927889    -0.22000
C52         C  0.63053843  0.46760106  0.92578006    -0.22000
C53         C  0.35265461  0.51322466  0.92304440    -0.22000
C54         C  0.35275213  0.46750957  0.92066563    -0.22000
C55         C  0.57282176  0.56927551  0.94619477    -0.17400
C56         C  0.40954796  0.56988946  0.94198219    -0.17400
C57         C  0.40965470  0.40935089  0.93394067    -0.17400
C58         C  0.57300483  0.40908377  0.93461548    -0.17400
H59         H  0.53458183  0.64740816  0.98249293     0.15500
H60         H  0.44672043  0.64764386  0.98050835     0.15500
H61         H  0.53508079  0.32598401  0.96000516     0.15500
H62         H  0.44714107  0.32636061  0.96029061     0.15500
H63         H  0.65991967  0.53429291  0.92965273     0.13800
H64         H  0.65992588  0.44677483  0.92299831     0.13800
H65         H  0.32337618  0.53433863  0.92141340     0.13800
H66         H  0.32356250  0.44649873  0.91680616     0.13800
H67         H  0.49167363  0.53070756  0.91893425     0.27100
H68         H  0.49151005  0.45094535  0.91291003     0.27100
N69         N  0.49706646  0.12269866  0.41240787    -0.35700
N70         N  0.43129708  0.12348660  0.34666145    -0.56200
N71         N  0.50146367  0.12134673  0.28519833    -0.35700
N72         N  0.56744219  0.12185575  0.35079204    -0.56200
C73         C  0.45994563  0.13556741  0.43299045     0.27900
C74         C  0.53286387  0.13525042  0.43526225     0.27900
C75         C  0.46597545  0.13375744  0.26191776     0.27900
C76         C  0.53896440  0.13170948  0.26399077     0.27900
C77         C  0.40354078  0.11878453  0.37891305     0.36500
C78         C  0.40572731  0.11929782  0.31270686     0.36500
C79         C  0.59269094  0.11725460  0.38494964     0.36500
C80         C  0.59506933  0.11559660  0.31856414     0.36500
C81         C  0.47228215  0.15515337  0.46996966    -0.21000
C82         C  0.51827479  0.15498196  0.47139156    -0.21000
C83         C  0.48108318  0.15069602  0.22490369    -0.21000
C84         C  0.52708881  0.14946206  0.22621939    -0.21000
C85         C  0.36026281  0.11044705  0.36543372    -0.22000
C86         C  0.36161796  0.11093798  0.32338865    -0.22000
C87         C  0.63645930  0.10719317  0.37442265    -0.22000
C88         C  0.63795824  0.10609830  0.33230964    -0.22000
C89         C  0.41529112  0.12975968  0.41948314    -0.17400
C90         C  0.57825657  0.12864490  0.42474642    -0.17400
C91         C  0.58353023  0.12491351  0.27749493    -0.17400
C92         C  0.42037457  0.12963049  0.27289468    -0.17400
H93         H  0.45046382  0.16870610  0.49332623     0.15500
H94         H  0.53862170  0.16835490  0.49606716     0.15500
H95         H  0.46106712  0.16305414  0.19965551     0.15500
H96         H  0.54924089  0.16079047  0.20218148     0.15500
H97         H  0.33047026  0.10681061  0.38394558     0.13800
H98         H  0.33309259  0.10757475  0.30305135     0.13800
H99         H  0.66472678  0.10303778  0.39490222     0.13800
H100        H  0.66761149  0.10093636  0.31391414     0.13800
H101        H  0.49785827  0.10353365  0.38577147     0.27100
H102        H  0.50016052  0.10377434  0.31261569     0.27100
N103        N  0.87006347  0.50955649  0.29119707    -0.35700
N104        N  0.87153733  0.57552382  0.35565152    -0.56200
N105        N  0.87372413  0.50417278  0.41807913    -0.35700
N106        N  0.87013641  0.43871144  0.35367086    -0.56200
C107        C  0.85946838  0.54649961  0.26934229     0.27900
C108        C  0.85767487  0.47373213  0.26853198     0.27900
C109        C  0.86548076  0.54021152  0.44190016     0.27900
C110        C  0.86362105  0.46734878  0.44043129     0.27900
C111        C  0.87541311  0.60333833  0.32314659     0.36500
C112        C  0.87739932  0.60063004  0.38976744     0.36500
C113        C  0.87419689  0.41370247  0.31948651     0.36500
C114        C  0.87459238  0.41059882  0.38573176     0.36500
C115        C  0.84103807  0.53389438  0.23192818    -0.21000
C116        C  0.83980001  0.48803334  0.23144996    -0.21000
C117        C  0.85128514  0.52607294  0.48030494    -0.21000
C118        C  0.85010510  0.48022509  0.47934270    -0.21000
C119        C  0.88379876  0.64636419  0.33668126    -0.22000
C120        C  0.88497496  0.64469168  0.37883035    -0.22000
C121        C  0.88212114  0.36954509  0.32987174    -0.22000
C122        C  0.88206208  0.36755453  0.37188226    -0.22000
C123        C  0.86696186  0.59118127  0.28184697    -0.17400
C124        C  0.86346059  0.42852768  0.27972875    -0.17400
C125        C  0.86693629  0.42246894  0.42693696    -0.17400
C126        C  0.87149470  0.58544306  0.43052695    -0.17400
H127        H  0.82938034  0.55546418  0.20757165     0.15500
H128        H  0.82719911  0.46757234  0.20654136     0.15500
H129        H  0.84237640  0.54663235  0.50637003     0.15500
H130        H  0.84021490  0.45884793  0.50444321     0.15500
H131        H  0.88736812  0.67606258  0.31818576     0.13800
H132        H  0.88967012  0.67293956  0.39913794     0.13800
H133        H  0.88541293  0.34133325  0.30931859     0.13800
H134        H  0.88560801  0.33764486  0.39009534     0.13800
H135        H  0.88841515  0.50856568  0.31830876     0.27100
H136        H  0.88884804  0.50496509  0.38946445     0.27100
N137        N  0.49364756  0.86627559  0.28947131    -0.35700
N138        N  0.42485650  0.86617752  0.35355488    -0.56200
N139        N  0.49421739  0.86025461  0.41564527    -0.35700
N140        N  0.56258674  0.85696909  0.35169680    -0.56200
C141        C  0.45611671  0.86037670  0.26670396     0.27900
C142        C  0.52890870  0.85403289  0.26585534     0.27900
C143        C  0.45753186  0.85177500  0.43881585     0.27900
C144        C  0.53059574  0.84811273  0.43786931     0.27900
C145        C  0.39858742  0.87485917  0.32075162     0.36500
C146        C  0.39869587  0.87023264  0.38714695     0.36500
C147        C  0.58916510  0.86087365  0.31843710     0.36500
C148        C  0.58964002  0.85989327  0.38484922     0.36500
C149        C  0.46780825  0.84529878  0.22785828    -0.21000
C150        C  0.51361549  0.84128979  0.22735372    -0.21000
C151        C  0.47093910  0.83492073  0.47648230    -0.21000
C152        C  0.51688603  0.83254216  0.47586243    -0.21000
C153        C  0.35541681  0.88454248  0.33355518    -0.22000
C154        C  0.35547955  0.88152962  0.37562930    -0.22000
C155        C  0.63337515  0.86630923  0.33047087    -0.22000
C156        C  0.63366535  0.86585990  0.37259056    -0.22000
C157        C  0.41168527  0.86917566  0.27946497    -0.17400
C158        C  0.57459159  0.85518200  0.27757994    -0.17400
C159        C  0.57589873  0.85228544  0.42560876    -0.17400
C160        C  0.41238775  0.86002355  0.42758328    -0.17400
H161        H  0.44563944  0.83765875  0.20246013     0.15500
H162        H  0.53337419  0.83009559  0.20153034     0.15500
H163        H  0.44983144  0.82532155  0.50190634     0.15500
H164        H  0.53781271  0.82073923  0.50071229     0.15500
H165        H  0.32659895  0.89177431  0.31450488     0.13800
H166        H  0.32680160  0.88617384  0.39539200     0.13800
H167        H  0.66246104  0.86930479  0.31094694     0.13800
H168        H  0.66308077  0.86830086  0.39193880     0.13800
H169        H  0.49521357  0.88148036  0.31810129     0.27100
H170        H  0.49480640  0.87725066  0.38796710     0.27100
N171        N  0.12525325  0.50385522  0.41765751    -0.35700
N172        N  0.12567574  0.43351468  0.35489936    -0.56200
N173        N  0.12708752  0.49989024  0.29083711    -0.35700
N174        N  0.12953182  0.57011997  0.35378829    -0.56200
C175        C  0.13531920  0.46765230  0.44058043     0.27900
C176        C  0.13677818  0.54038909  0.43995398     0.27900
C177        C  0.13681927  0.46281375  0.26869914     0.27900
C178        C  0.13922227  0.53552645  0.26803546     0.27900
C179        C  0.11959164  0.40822473  0.38862256     0.36500
C180        C  0.12062431  0.40611777  0.32219660     0.36500
C181        C  0.12489864  0.59782534  0.38628929     0.36500
C182        C  0.12610555  0.59565963  0.31990630     0.36500
C183        C  0.15252844  0.48138289  0.47817563    -0.21000
C184        C  0.15339850  0.52720587  0.47778403    -0.21000
C185        C  0.15402889  0.47515246  0.23091242    -0.21000
C186        C  0.15551854  0.52095347  0.23047109    -0.21000
C187        C  0.11023738  0.36456120  0.37728548    -0.22000
C188        C  0.11089378  0.36324421  0.33516944    -0.22000
C189        C  0.11820127  0.64115030  0.37300657    -0.22000
C190        C  0.11892834  0.63978634  0.33092008    -0.22000
C191        C  0.12822288  0.42262821  0.42913419    -0.17400
C192        C  0.13178772  0.58528488  0.42748129    -0.17400
C193        C  0.13519836  0.58083847  0.27969956    -0.17400
C194        C  0.12991701  0.41819432  0.28130767    -0.17400
H195        H  0.16353040  0.46055859  0.50331893     0.15500
H196        H  0.16527737  0.54837386  0.50247972     0.15500
H197        H  0.16476610  0.45343558  0.20626700     0.15500
H198        H  0.16756285  0.54118362  0.20535729     0.15500
H199        H  0.10505592  0.33629165  0.39729249     0.13800
H200        H  0.10623142  0.33383147  0.31630867     0.13800
H201        H  0.11466393  0.67082858  0.39167565     0.13800
H202        H  0.11605843  0.66825753  0.31075361     0.13800
H203        H  0.10783708  0.50358159  0.38999825     0.27100
H204        H  0.10990066  0.50106450  0.31847420     0.27100
Zr205      Zr  0.22967527  0.23203057  0.17153807     2.17500
O206        O  0.25471558  0.24443656  0.24205002    -0.50400
O207        O  0.17728091  0.17832901  0.20060262    -0.73600
O208        O  0.18730147  0.29152938  0.20593022    -0.80400
O209        O  0.33243846  0.15701482  0.15270222    -0.82100
O210        O  0.15134209  0.33338826  0.15787026    -0.77800
O211        O  0.29387768  0.19411805  0.20234485    -0.89400
O212        O  0.13822011  0.14379124  0.14977729    -0.75400
O213        O  0.16451978  0.23555576  0.12939646    -0.84900
O214        O  0.23164195  0.16770390  0.12831191    -0.84500
O215        O  0.23650964  0.30105107  0.13443046    -0.71300
O216        O  0.29728260  0.23796695  0.13236549    -0.83400
Zr217      Zr  0.24064492  0.24663141  0.00788711     2.26400
Zr218      Zr  0.17132675  0.30330777  0.09100056     2.06300
Zr219      Zr  0.29788194  0.17446541  0.08785096     2.10000
Zr220      Zr  0.16733399  0.17201523  0.08547238     1.78800
O221        O  0.37881485  0.17155160  0.07966472    -0.92200
O222        O  0.08703260  0.18499408  0.08183867    -0.40100
O223        O  0.23362292  0.17761014  0.04458361    -0.76700
O224        O  0.17243667  0.23953740  0.04657877    -0.95400
O225        O  0.23846919  0.31008024  0.05188154    -0.88700
O226        O  0.30541170  0.24224999  0.05033505    -0.91500
C227        C  0.14743502  0.15076714  0.18768888     1.02200
C228        C  0.32582211  0.16883712  0.18991598     1.15200
C229        C  0.16201669  0.32414145  0.19503775     1.05900
O230        O  0.08987205  0.30179776  0.09356613    -0.93700
O231        O  0.14291183  0.32497030  0.02372759    -0.89400
O232        O  0.18982943  0.29803852  0.97451121    -0.82600
C233        C  0.15595976  0.32080100  0.98635691     1.12600
O234        O  0.33917470  0.33731999  0.15498641    -0.95600
Zr235      Zr  0.30319056  0.30559815  0.09419458     1.88900
O236        O  0.29289246  0.29980060  0.97686443    -0.72300
O237        O  0.17686391  0.38432647  0.08737842    -0.51600
O238        O  0.29051472  0.38581155  0.09774436    -0.96200
O239        O  0.38358405  0.29213089  0.09737425    -0.53500
O240        O  0.33037001  0.33367288  0.02929117    -0.72800
C241        C  0.32212091  0.32734411  0.99113716     0.99500
O242        O  0.20604094  0.21590990  0.94591347    -0.61600
O243        O  0.29130079  0.09372232  0.09323843    -0.56400
O244        O  0.28808779  0.19363166  0.97173272    -0.93100
O245        O  0.31544504  0.14657516  0.02018613    -0.91500
O246        O  0.18084847  0.09213246  0.07934630    -0.91900
O247        O  0.13267240  0.13653459  0.02605792    -0.90700
C248        C  0.31027863  0.15909621  0.98285127     1.18400
H249        H  0.23216053  0.14052074  0.14406778     0.34300
H250        H  0.14700372  0.24009183  0.02809066     0.45200
H251        H  0.33238113  0.24184488  0.03417040     0.38700
H252        H  0.23739461  0.32620883  0.15282719     0.35200
H253        H  0.07335369  0.15508893  0.08465771     0.27000
H254        H  0.14619555  0.39521200  0.09292351     0.32900
H255        H  0.31795665  0.39945531  0.08631593     0.38800
H256        H  0.16001591  0.07798964  0.09897377     0.33300
H257        H  0.27648925  0.08418772  0.06743874     0.32100
H258        H  0.38665054  0.13976458  0.08342305     0.33800
H259        H  0.39284703  0.28639493  0.06870269     0.32800
H260        H  0.15029174  0.14731511  0.00239107     0.36800
H261        H  0.21039529  0.18324672  0.94748066     0.29500
H262        H  0.22794485  0.23998988  0.25939740     0.33800
H263        H  0.36083242  0.35961865  0.14465812     0.36600
H264        H  0.32234784  0.08257987  0.09077418     0.29200
H265        H  0.17343080  0.21950265  0.95002258     0.42100
H266        H  0.08267394  0.28421631  0.11835477     0.32100
H267        H  0.07971181  0.20029144  0.10792397     0.39800
H268        H  0.38647932  0.26287786  0.11110885     0.31600
H269        H  0.19443541  0.39324443  0.11187721     0.31700
H270        H  0.26167617  0.27664696  0.24412143     0.31900
Zr271      Zr  0.25123780  0.74686664  0.00752421     2.17500
O272        O  0.22738272  0.77054511  0.93932250    -0.50400
O273        O  0.29918627  0.68786102  0.97951275    -0.73600
O274        O  0.30576505  0.79536261  0.97465425    -0.80400
O275        O  0.14979119  0.67505547  0.02322567    -0.82100
O276        O  0.32402434  0.85037379  0.01989126    -0.77800
O277        O  0.19134473  0.70686622  0.97288252    -0.89400
O278        O  0.33640365  0.65722407  0.03344318    -0.75400
O279        O  0.31412069  0.75593005  0.05170897    -0.84900
O280        O  0.24936374  0.68435476  0.05254493    -0.84500
O281        O  0.23937217  0.81711830  0.04225766    -0.71300
O282        O  0.18188007  0.75263095  0.04431281    -0.83400
Zr283      Zr  0.23458812  0.76600544  0.16980040     2.26400
Zr284      Zr  0.30227933  0.82479300  0.08752509     2.06300
Zr285      Zr  0.18116156  0.69070961  0.08987738     2.10000
Zr286      Zr  0.31262344  0.69340405  0.09626976     1.78800
O287        O  0.10019765  0.68756748  0.09760450    -0.92200
O288        O  0.39242711  0.70957954  0.09283455    -0.40100
O289        O  0.24451388  0.69673507  0.13437022    -0.76700
O290        O  0.30426990  0.76191057  0.13310189    -0.95400
O291        O  0.23421981  0.82931333  0.12576638    -0.88700
O292        O  0.17057393  0.75855007  0.12673094    -0.91500
C293        C  0.32716989  0.66010192  0.99514590     1.02200
C294        C  0.15831601  0.68328692  0.98543716     1.15200
C295        C  0.32468673  0.83237076  0.98415510     1.05900
O296        O  0.38334622  0.83164411  0.08318426    -0.93700
O297        O  0.32970979  0.85084828  0.15363107    -0.89400
O298        O  0.29063564  0.81334425  0.20252705    -0.82600
C299        C  0.32095579  0.84083553  0.19098918     1.12600
O300        O  0.13707974  0.85148493  0.01990782    -0.95600
Zr301      Zr  0.17141743  0.82061920  0.08152175     1.88900
O302        O  0.17838067  0.81639362  0.19684600    -0.72300
O303        O  0.29216940  0.90532662  0.08922666    -0.51600
O304        O  0.18202717  0.90101302  0.07798001    -0.96200
O305        O  0.09213879  0.80293417  0.07388991    -0.53500
O306        O  0.13833259  0.84761486  0.14501949    -0.72800
C307        C  0.14714107  0.84163275  0.18317052     0.99500
O308        O  0.25085588  0.74406381  0.24040192    -0.61600
O309        O  0.18558452  0.60997530  0.08277672    -0.56400
O310        O  0.19684161  0.70449470  0.20417234    -0.93100
O311        O  0.16321935  0.66038508  0.15619711    -0.91500
O312        O  0.30501882  0.61483207  0.11350524    -0.91900
O313        O  0.35248665  0.66937798  0.15763348    -0.90700
C314        C  0.17313445  0.67076973  0.19319116     1.18400
H315        H  0.24952801  0.65627493  0.03801633     0.34300
H316        H  0.32955524  0.76387395  0.15149417     0.45200
H317        H  0.14332981  0.75716809  0.14249736     0.38700
H318        H  0.23882793  0.84099292  0.02250110     0.35200
H319        H  0.40689448  0.68007160  0.08996565     0.27000
H320        H  0.32235782  0.91762947  0.08389883     0.32900
H321        H  0.15568722  0.91386259  0.09203964     0.38800
H322        H  0.33072283  0.60009684  0.10003021     0.33300
H323        H  0.20554344  0.60033069  0.10537388     0.32100
H324        H  0.09200453  0.65650471  0.09045942     0.33800
H325        H  0.08108696  0.79783573  0.10209091     0.32800
H326        H  0.33467896  0.68142704  0.18070699     0.36800
H327        H  0.28355954  0.73890277  0.24160213     0.29500
H328        H  0.25219982  0.76260774  0.92060574     0.33800
H329        H  0.11496289  0.87359342  0.02974433     0.36600
H330        H  0.15558442  0.59897608  0.09069259     0.29200
H331        H  0.24560438  0.77091595  0.25744774     0.42100
H332        H  0.39503422  0.80845627  0.10189789     0.32100
H333        H  0.39680463  0.72394240  0.06582269     0.39800
H334        H  0.09156983  0.77305957  0.06089916     0.31600
H335        H  0.27481921  0.91226198  0.06412280     0.31700
H336        H  0.22720584  0.80353700  0.94022134     0.31900
Zr337      Zr  0.22144531  0.77519692  0.54114866     2.17500
O338        O  0.22144522  0.78295645  0.46653092    -0.50400
O339        O  0.16253877  0.82947082  0.52567776    -0.73600
O340        O  0.18503846  0.71267787  0.50525840    -0.80400
O341        O  0.32889121  0.84615081  0.55404684    -0.82100
O342        O  0.15355004  0.66681121  0.55249674    -0.77800
O343        O  0.28561559  0.81006461  0.50690955    -0.89400
O344        O  0.12896471  0.85652060  0.58285510    -0.75400
O345        O  0.16283797  0.76161247  0.58897773    -0.84900
O346        O  0.22438180  0.83485785  0.58979834    -0.84500
O347        O  0.23936877  0.70356496  0.57059195    -0.71300
O348        O  0.29390608  0.77043385  0.57278280    -0.83400
Zr349      Zr  0.25420471  0.74623403  0.70083437     2.26400
Zr350      Zr  0.18069132  0.69114586  0.61919854     2.06300
Zr351      Zr  0.29667661  0.83010958  0.62112686     2.10000
Zr352      Zr  0.16676995  0.82007821  0.63875864     1.78800
O353        O  0.37685673  0.84504451  0.62417231    -0.92200
O354        O  0.08821255  0.79988086  0.64602480    -0.40100
O355        O  0.23898135  0.81754326  0.67053793    -0.76700
O356        O  0.18132539  0.74948257  0.66960226    -0.95400
O357        O  0.25201312  0.68699844  0.65218720    -0.88700
O358        O  0.31303472  0.76012494  0.65310675    -0.91500
C359        C  0.13373278  0.85440501  0.54397905     1.02200
C360        C  0.31951236  0.83420465  0.51712123     1.15200
C361        C  0.16192846  0.67830629  0.51548456     1.05900
O362        O  0.10004345  0.68585089  0.62802812    -0.93700
O363        O  0.16861118  0.65482616  0.68432606    -0.89400
O364        O  0.20728880  0.69097971  0.73483469    -0.82600
C365        C  0.18008847  0.66087015  0.72184685     1.12600
O366        O  0.34647508  0.67973018  0.54072228    -0.95600
Zr367      Zr  0.31033381  0.70073939  0.60491950     1.88900
O368        O  0.30895101  0.69101671  0.72260097    -0.72300
O369        O  0.18963464  0.61079130  0.61212625    -0.51600
O370        O  0.29932293  0.62164350  0.59074872    -0.96200
O371        O  0.38922653  0.72045010  0.59930230    -0.53500
O372        O  0.34190473  0.66393603  0.66482994    -0.72800
C373        C  0.33628483  0.66513482  0.70383094     0.99500
O374        O  0.23034501  0.77091790  0.76892205    -0.61600
O375        O  0.27938507  0.90930712  0.61662111    -0.56400
O376        O  0.30530556  0.79790341  0.73456070    -0.93100
O377        O  0.31937612  0.85387088  0.68920359    -0.91500
O378        O  0.16960771  0.89937377  0.65487571    -0.91900
O379        O  0.13829106  0.83690823  0.70708308    -0.90700
C380        C  0.32167229  0.83601971  0.72489541     1.18400
H381        H  0.22052146  0.86342583  0.57671109     0.34300
H382        H  0.15841559  0.74423209  0.68983647     0.45200
H383        H  0.34178117  0.76108855  0.66672675     0.38700
H384        H  0.24050918  0.68017708  0.55027221     0.35200
H385        H  0.07237610  0.82863211  0.64938488     0.27000
H386        H  0.15903175  0.59925534  0.60707926     0.32900
H387        H  0.32580817  0.60666810  0.60269402     0.38800
H388        H  0.13806238  0.90937933  0.65362652     0.33300
H389        H  0.26061311  0.91538702  0.64097579     0.32100
H390        H  0.37946897  0.87792845  0.62536937     0.33800
H391        H  0.40124041  0.71870074  0.62758474     0.32800
H392        H  0.16504852  0.83664275  0.72506016     0.36800
H393        H  0.23008714  0.80389614  0.76770339     0.29500
H394        H  0.18981327  0.78014953  0.45770981     0.33800
H395        H  0.36908342  0.65700644  0.54815557     0.36600
H396        H  0.30802775  0.92464673  0.62256976     0.29200
H397        H  0.19825577  0.76305811  0.77094500     0.42100
H398        H  0.08730346  0.70203498  0.60429088     0.32100
H399        H  0.07897537  0.78913791  0.61852391     0.39800
H400        H  0.38919288  0.75268853  0.59286358     0.31600
H401        H  0.20552148  0.60636159  0.58582144     0.31700
H402        H  0.23637605  0.75591944  0.45573427     0.31900
Zr403      Zr  0.25217706  0.24699838  0.69292484     2.17500
O404        O  0.22148642  0.21760294  0.75661860    -0.50400
O405        O  0.30615816  0.30024967  0.72236449    -0.73600
O406        O  0.30496681  0.19455249  0.72402462    -0.80400
O407        O  0.14726746  0.31738368  0.68519825    -0.82100
O408        O  0.34487666  0.16492906  0.67110428    -0.77800
O409        O  0.20145622  0.29588522  0.73019625    -0.89400
O410        O  0.33364432  0.34229999  0.67009314    -0.75400
O411        O  0.31388485  0.25029890  0.64709217    -0.84900
O412        O  0.24174681  0.31152416  0.65163753    -0.84500
O413        O  0.24838953  0.17921617  0.65305371    -0.71300
O414        O  0.18200530  0.23560549  0.65753275    -0.83400
Zr415      Zr  0.23264477  0.23850428  0.52956062     2.26400
Zr416      Zr  0.30996912  0.18397139  0.60669665     2.06300
Zr417      Zr  0.17254979  0.30033710  0.61609610     2.10000
Zr418      Zr  0.30352969  0.31469231  0.60607570     1.78800
O419        O  0.09267780  0.28479532  0.61315269    -0.92200
O420        O  0.38468951  0.31004448  0.59984114    -0.40100
O421        O  0.23463412  0.30516332  0.57010555    -0.76700
O422        O  0.30269142  0.24892276  0.56463589    -0.95400
O423        O  0.24188040  0.17309845  0.56963601    -0.88700
O424        O  0.16959079  0.23473602  0.57425907    -0.91500
C425        C  0.33089621  0.33172274  0.70800881     1.02200
C426        C  0.16483935  0.31598655  0.72116350     1.15200
C427        C  0.33652155  0.17017645  0.70933469     1.05900
O428        O  0.39101898  0.18615002  0.59924578    -0.93700
O429        O  0.33460238  0.16160152  0.53938665    -0.89400
O430        O  0.29160615  0.19846421  0.49281474    -0.82600
C431        C  0.32384117  0.17231202  0.50273169     1.12600
O432        O  0.15230850  0.13418477  0.67732264    -0.95600
Zr433      Zr  0.18000409  0.16983034  0.61514182     1.88900
O434        O  0.18242115  0.18354746  0.49956584    -0.72300
O435        O  0.30485549  0.10306193  0.61013756    -0.51600
O436        O  0.20022815  0.09114416  0.61579181    -0.96200
O437        O  0.09847195  0.17160155  0.61855252    -0.53500
O438        O  0.15453221  0.13935754  0.54990185    -0.72800
C439        C  0.15895175  0.15050891  0.51212084     0.99500
O440        O  0.24528355  0.26684658  0.46040362    -0.61600
O441        O  0.16043081  0.38032826  0.62408509    -0.56400
O442        O  0.18979356  0.29999954  0.50094980    -0.93100
O443        O  0.15201695  0.33567677  0.55199800    -0.91500
O444        O  0.28259532  0.39305182  0.60491877    -0.91900
O445        O  0.33048810  0.35133297  0.54427670    -0.90700
C446        C  0.16318426  0.33020616  0.51438108     1.18400
H447        H  0.24066538  0.33822535  0.66823355     0.34300
H448        H  0.32717532  0.25105138  0.54546691     0.45200
H449        H  0.14209821  0.23366022  0.55874484     0.38700
H450        H  0.25206047  0.15369057  0.67075570     0.35200
H451        H  0.39564374  0.34058876  0.60562680     0.27000
H452        H  0.29666643  0.09349098  0.58199407     0.32900
H453        H  0.17280403  0.07515558  0.60697089     0.38800
H454        H  0.25222667  0.39333459  0.59266262     0.33300
H455        H  0.12992916  0.38331997  0.63556230     0.32100
H456        H  0.07857563  0.31439728  0.60972437     0.33800
H457        H  0.08887920  0.14096054  0.61126792     0.32800
H458        H  0.30827630  0.34329834  0.52287109     0.36800
H459        H  0.27740099  0.27494255  0.45930435     0.29500
H460        H  0.24443697  0.22390070  0.77784542     0.33800
H461        H  0.13454358  0.10810750  0.66811820     0.36600
H462        H  0.18063747  0.38980113  0.64662421     0.29200
H463        H  0.24198922  0.24090678  0.44177185     0.42100
H464        H  0.39767051  0.21693310  0.59024875     0.32100
H465        H  0.39446745  0.29242561  0.62390002     0.39800
H466        H  0.08876985  0.18985529  0.59491822     0.31600
H467        H  0.33613532  0.09294302  0.61373759     0.31700
H468        H  0.22178339  0.18480035  0.75321416     0.31900
Zr469      Zr  0.76795919  0.77101853  0.16534224     2.17500
O470        O  0.76141075  0.77450946  0.24012705    -0.50400
O471        O  0.82123818  0.83114021  0.18085807    -0.73600
O472        O  0.81221455  0.71442296  0.20168169    -0.80400
O473        O  0.65426287  0.83104374  0.15168556    -0.82100
O474        O  0.84866168  0.67151618  0.15480626    -0.77800
O475        O  0.70254233  0.80355617  0.19947152    -0.89400
O476        O  0.85359632  0.85939635  0.12369501    -0.75400
O477        O  0.82825397  0.76706554  0.11764145    -0.84900
O478        O  0.75590188  0.82935354  0.11698412    -0.84500
O479        O  0.76157971  0.69786434  0.13463678    -0.71300
O480        O  0.69667103  0.75538815  0.13383068    -0.83400
Zr481      Zr  0.74023371  0.73750922  0.00586011     2.26400
Zr482      Zr  0.82240154  0.69463771  0.08677547     2.06300
Zr483      Zr  0.68545483  0.81358959  0.08497457     2.10000
Zr484      Zr  0.81492499  0.82424496  0.06809651     1.78800
O485        O  0.60423830  0.80764287  0.08027850    -0.92200
O486        O  0.89430445  0.81944876  0.05176285    -0.40100
O487        O  0.74450239  0.81046041  0.03584758    -0.76700
O488        O  0.81169819  0.75242949  0.03689174    -0.95400
O489        O  0.75212379  0.67925842  0.05414559    -0.88700
O490        O  0.67978415  0.74209325  0.05320247    -0.91500
C491        C  0.84874908  0.85742849  0.16242413     1.02200
C492        C  0.66622274  0.82344235  0.18881265     1.15200
C493        C  0.83849761  0.68224560  0.19186610     1.05900
O494        O  0.90355134  0.70098863  0.08348536    -0.93700
O495        O  0.84662800  0.66950160  0.01917167    -0.89400
O496        O  0.79072565  0.68493445  0.97357439    -0.82600
C497        C  0.82845511  0.66760773  0.98337392     1.12600
O498        O  0.66990805  0.65368839  0.16755928    -0.95600
Zr499      Zr  0.69164353  0.68389928  0.10102875     1.88900
O500        O  0.68782579  0.68099738  0.98241376    -0.72300
O501        O  0.82243980  0.61347337  0.08871271    -0.51600
O502        O  0.70900268  0.60474793  0.10646451    -0.96200
O503        O  0.61161489  0.69104183  0.11382191    -0.53500
O504        O  0.65806104  0.65035357  0.04003266    -0.72800
C505        C  0.66160914  0.65389767  0.00092894     0.99500
O506        O  0.76630618  0.76279797  0.93876969    -0.61600
O507        O  0.68245867  0.89445889  0.08972027    -0.56400
O508        O  0.68515840  0.78288430  0.97060820    -0.93100
O509        O  0.66459658  0.83677574  0.01618725    -0.91500
O510        O  0.79537911  0.90278954  0.06291119    -0.91900
O511        O  0.83486293  0.85472131  0.00139068    -0.90700
C512        C  0.66532094  0.81928735  0.98017570     1.18400
H513        H  0.75534499  0.85814253  0.13028805     0.34300
H514        H  0.83490309  0.75170128  0.01623432     0.45200
H515        H  0.65129737  0.73912339  0.03945200     0.38700
H516        H  0.76353093  0.67436346  0.15467348     0.35200
H517        H  0.90576377  0.85027952  0.05484149     0.27000
H518        H  0.85397026  0.60526993  0.09421880     0.32900
H519        H  0.68195875  0.58915700  0.09618077     0.38800
H520        H  0.82421030  0.91887621  0.06552385     0.33300
H521        H  0.69999943  0.90503897  0.06593460     0.32100
H522        H  0.59390273  0.83811428  0.07357253     0.33800
H523        H  0.59911107  0.70452166  0.08859115     0.32800
H524        H  0.80674193  0.85392797  0.98526556     0.36800
H525        H  0.76019641  0.79521178  0.93801219     0.29500
H526        H  0.79226859  0.77771275  0.25093465     0.33800
H527        H  0.64805201  0.62967042  0.16159048     0.36600
H528        H  0.65110261  0.90208834  0.08286198     0.29200
H529        H  0.79936862  0.76117419  0.94015279     0.42100
H530        H  0.91179555  0.72026375  0.10703639     0.32100
H531        H  0.90774712  0.80302373  0.07503296     0.39800
H532        H  0.60922006  0.71485409  0.13480425     0.31600
H533        H  0.80632806  0.60567430  0.11421889     0.31700
H534        H  0.75141107  0.74456721  0.24902705     0.31900
Zr535      Zr  0.74657823  0.74631344  0.70244457     2.17500
O536        O  0.77359906  0.77430605  0.76841772    -0.50400
O537        O  0.69561416  0.69156197  0.73219403    -0.73600
O538        O  0.69242087  0.79698151  0.73432950    -0.80400
O539        O  0.85849181  0.68491300  0.69094485    -0.82100
O540        O  0.64716350  0.82165453  0.68283764    -0.77800
O541        O  0.80421846  0.70237679  0.73718393    -0.89400
O542        O  0.66883587  0.64826567  0.68018667    -0.75400
O543        O  0.68380146  0.73862988  0.65769806    -0.84900
O544        O  0.76022122  0.68231807  0.66078835    -0.84500
O545        O  0.74460345  0.81433561  0.66334458    -0.71300
O546        O  0.81469611  0.76151045  0.66578651    -0.83400
Zr547      Zr  0.76154471  0.75671398  0.53940038     2.26400
Zr548      Zr  0.68209344  0.80531716  0.61781968     2.06300
Zr549      Zr  0.82733707  0.69755845  0.62335164     2.10000
Zr550      Zr  0.69786742  0.67516321  0.61596997     1.78800
O551        O  0.90692313  0.71354946  0.61755030    -0.92200
O552        O  0.61692317  0.67213444  0.60723936    -0.40100
O553        O  0.76465816  0.68914130  0.57828102    -0.76700
O554        O  0.69315084  0.74111990  0.57516527    -0.95400
O555        O  0.74871820  0.82109088  0.58022773    -0.88700
O556        O  0.82510293  0.76389084  0.58328488    -0.91500
C557        C  0.67174569  0.65938134  0.71798816     1.02200
C558        C  0.84234751  0.68563952  0.72736757     1.15200
C559        C  0.65821723  0.81839420  0.72070443     1.05900
O560        O  0.60125414  0.79771341  0.61049278    -0.93700
O561        O  0.65512934  0.82711812  0.55069544    -0.89400
O562        O  0.70123142  0.79555715  0.50339406    -0.82600
C563        C  0.66688547  0.81864224  0.51374446     1.12600
O564        O  0.83400033  0.86963553  0.68569964    -0.95600
Zr565      Zr  0.81148876  0.82775045  0.62482861     1.88900
O566        O  0.80985707  0.81313503  0.51009836    -0.72300
O567        O  0.67946098  0.88618657  0.62319317    -0.51600
O568        O  0.78460940  0.90409113  0.61821714    -0.96200
O569        O  0.89203909  0.83008572  0.63658627    -0.53500
O570        O  0.84258504  0.85421674  0.56063604    -0.72800
C571        C  0.83625946  0.84393983  0.52282750     0.99500
O572        O  0.74654233  0.72545361  0.47151441    -0.61600
O573        O  0.83904723  0.61745249  0.63024308    -0.56400
O574        O  0.81101196  0.70239752  0.50818704    -0.93100
O575        O  0.85039107  0.66623218  0.55790676    -0.91500
O576        O  0.72347412  0.59817773  0.61733754    -0.91900
O577        O  0.67480544  0.63296264  0.55561135    -0.90700
C578        C  0.83937119  0.67326872  0.52040004     1.18400
H579        H  0.76334906  0.65595041  0.67745880     0.34300
H580        H  0.66864786  0.73759385  0.55605525     0.45200
H581        H  0.85254078  0.76664405  0.56782568     0.38700
H582        H  0.73981892  0.83955485  0.68115321     0.35200
H583        H  0.60827854  0.64192602  0.61651944     0.27000
H584        H  0.69382851  0.89699095  0.59775173     0.32900
H585        H  0.80970462  0.92081230  0.60577909     0.38800
H586        H  0.69823602  0.58119549  0.62922214     0.33300
H587        H  0.87112807  0.61427116  0.63731504     0.32100
H588        H  0.92138680  0.68388434  0.61690009     0.33800
H589        H  0.90562032  0.82196424  0.60992790     0.32800
H590        H  0.69313948  0.64529494  0.53306094     0.36800
H591        H  0.71407178  0.71885374  0.47079138     0.29500
H592        H  0.75025996  0.76605663  0.78855359     0.33800
H593        H  0.84675717  0.89793159  0.67539931     0.36600
H594        H  0.82304046  0.60867582  0.65551557     0.29200
H595        H  0.75082842  0.75033605  0.45201045     0.42100
H596        H  0.59693958  0.77331960  0.59031990     0.32100
H597        H  0.60503314  0.69235962  0.62864185     0.39800
H598        H  0.89818372  0.80416426  0.65446660     0.31600
H599        H  0.64742021  0.89364206  0.61966866     0.31700
H600        H  0.77204582  0.80719277  0.76646793     0.31900
Zr601      Zr  0.75920528  0.24319187  0.17352277     2.17500
O602        O  0.73230050  0.27221338  0.23889713    -0.50400
O603        O  0.81393826  0.19526228  0.20603973    -0.73600
O604        O  0.70548768  0.19322107  0.20625015    -0.80400
O605        O  0.83239629  0.34663727  0.15866794    -0.82100
O606        O  0.66931639  0.15325701  0.15672673    -0.77800
O607        O  0.79918277  0.30370435  0.20748435    -0.89400
O608        O  0.85274906  0.15962994  0.15587158    -0.75400
O609        O  0.76311734  0.17850335  0.13114042    -0.84900
O610        O  0.82435604  0.25133709  0.13221797    -0.84500
O611        O  0.69069814  0.24308426  0.13477279    -0.71300
O612        O  0.74825813  0.31064846  0.13561034    -0.83400
Zr613      Zr  0.74781162  0.25421037  0.01028980     2.26400
Zr614      Zr  0.69622197  0.17891297  0.09082941     2.06300
Zr615      Zr  0.81256969  0.31702142  0.09253604     2.10000
Zr616      Zr  0.82738553  0.18745470  0.08932912     1.78800
O617        O  0.80965300  0.39815437  0.09400235    -0.92200
O618        O  0.82409143  0.10648467  0.08473028    -0.40100
O619        O  0.81665366  0.25339546  0.04876406    -0.76700
O620        O  0.76062146  0.18629585  0.04794891    -0.95400
O621        O  0.68378393  0.24565615  0.05275725    -0.88700
O622        O  0.74491071  0.31811674  0.05371510    -0.91500
C623        C  0.84331169  0.16720890  0.19375113     1.02200
C624        C  0.82320499  0.33680152  0.19579964     1.15200
C625        C  0.67658357  0.16425345  0.19416993     1.05900
O626        O  0.70626363  0.09845498  0.09280215    -0.93700
O627        O  0.67453895  0.15134025  0.02348026    -0.89400
O628        O  0.69738986  0.20213552  0.97610164    -0.82600
C629        C  0.67644233  0.16666063  0.98678877     1.12600
O630        O  0.64269280  0.33832251  0.15651192    -0.95600
Zr631      Zr  0.68088492  0.30965377  0.09585187     1.88900
O632        O  0.69237401  0.30374484  0.97893933    -0.72300
O633        O  0.61505186  0.17331669  0.08717820    -0.51600
O634        O  0.60193011  0.28909564  0.09517036    -0.96200
O635        O  0.68576473  0.39052403  0.10292328    -0.53500
O636        O  0.65276403  0.33598972  0.03068161    -0.72800
C637        C  0.66155778  0.32960459  0.99270886     0.99500
O638        O  0.78181624  0.22246487  0.94879477    -0.61600
O639        O  0.89402830  0.31416583  0.09282036    -0.56400
O640        O  0.79724251  0.30673668  0.97575279    -0.93100
O641        O  0.83151246  0.34712822  0.02617683    -0.91500
O642        O  0.90624591  0.20817216  0.08877537    -0.91900
O643        O  0.86711234  0.15802977  0.03000881    -0.90700
C644        C  0.82335229  0.33791265  0.98848466     1.18400
H645        H  0.85100621  0.25397830  0.14876102     0.34300
H646        H  0.76236386  0.16146028  0.02916127     0.45200
H647        H  0.74292010  0.34528819  0.03809918     0.38700
H648        H  0.66512424  0.24068049  0.15267811     0.35200
H649        H  0.85368657  0.09624102  0.09466068     0.27000
H650        H  0.60803724  0.14299081  0.09724716     0.32900
H651        H  0.58639801  0.31446857  0.08200601     0.38800
H652        H  0.92217699  0.18143506  0.09889239     0.33300
H653        H  0.90224638  0.30487537  0.06466040     0.32100
H654        H  0.84098566  0.40792433  0.08993904     0.33800
H655        H  0.68247153  0.40246421  0.07479397     0.32800
H656        H  0.84575474  0.16116582  0.00691071     0.36800
H657        H  0.81438721  0.22741418  0.95222415     0.29500
H658        H  0.73714155  0.24813759  0.25914664     0.33800
H659        H  0.61727378  0.35619474  0.14606221     0.36600
H660        H  0.90361718  0.34570301  0.09473548     0.29200
H661        H  0.77840646  0.18980040  0.95175772     0.42100
H662        H  0.72244998  0.09107737  0.06721505     0.32100
H663        H  0.80302143  0.09752091  0.10660531     0.39800
H664        H  0.71741813  0.39638979  0.11018877     0.31600
H665        H  0.60406616  0.19355209  0.10896104     0.31700
H666        H  0.69940806  0.27445868  0.23576902     0.31900
Zr667      Zr  0.74963179  0.24975174  0.69555918     2.17500
O668        O  0.77324321  0.21965759  0.76168522    -0.50400
O669        O  0.69868885  0.30481230  0.72535134    -0.73600
O670        O  0.80682194  0.29473552  0.72961201    -0.80400
O671        O  0.67194618  0.15004640  0.68243162    -0.82100
O672        O  0.84961915  0.32465252  0.67919247    -0.77800
O673        O  0.69883565  0.19921129  0.72993109    -0.89400
O674        O  0.65962895  0.33619639  0.67292567    -0.75400
O675        O  0.75277539  0.31307510  0.65173984    -0.84900
O676        O  0.68536487  0.24477475  0.65241992    -0.84500
O677        O  0.81820322  0.24113645  0.65779243    -0.71300
O678        O  0.75617816  0.18016312  0.65898712    -0.83400
Zr679      Zr  0.76294670  0.23391670  0.53197296     2.26400
Zr680      Zr  0.82017262  0.30427366  0.61286222     2.06300
Zr681      Zr  0.69258526  0.17672295  0.61467602     2.10000
Zr682      Zr  0.68844604  0.30768373  0.60874407     1.78800
O683        O  0.70176455  0.09614410  0.61247533    -0.92200
O684        O  0.69836906  0.38819618  0.60456899    -0.40100
O685        O  0.69440895  0.24006822  0.57000811    -0.76700
O686        O  0.75548569  0.30293782  0.56912432    -0.95400
O687        O  0.82735335  0.23643697  0.57481959    -0.88700
O688        O  0.75951922  0.16983377  0.57517998    -0.91500
C689        C  0.66885104  0.33139404  0.71102724     1.02200
C690        C  0.67592903  0.16492463  0.71925487     1.15200
C691        C  0.84022197  0.31778833  0.71700965     1.05900
O692        O  0.82098744  0.38544674  0.61617720    -0.93700
O693        O  0.84274764  0.33401658  0.54711799    -0.89400
O694        O  0.80447802  0.29483576  0.49850309    -0.82600
C695        C  0.83117959  0.32628321  0.50991440     1.12600
O696        O  0.85562426  0.13989136  0.68029561    -0.95600
Zr697      Zr  0.82314462  0.17358888  0.61913998     1.88900
O698        O  0.81763809  0.18192169  0.50467113    -0.72300
O699        O  0.90124986  0.29868458  0.60770392    -0.51600
O700        O  0.90280849  0.19057771  0.62339532    -0.96200
O701        O  0.81337650  0.09287404  0.62287421    -0.53500
O702        O  0.85309954  0.14478895  0.55586784    -0.72800
C703        C  0.84593410  0.15331106  0.51800483     0.99500
O704        O  0.74323371  0.24364250  0.45975693    -0.61600
O705        O  0.61110435  0.17312367  0.61693780    -0.56400
O706        O  0.70129398  0.19334461  0.49966574    -0.93100
O707        O  0.66043625  0.15779514  0.54863696    -0.91500
O708        O  0.60835018  0.29339529  0.60519234    -0.91900
O709        O  0.65254915  0.34006980  0.54869811    -0.90700
C710        C  0.66898579  0.16815716  0.51136357     1.18400
H711        H  0.65813846  0.24486722  0.66823362     0.34300
H712        H  0.75510105  0.32825246  0.55104405     0.45200
H713        H  0.75902868  0.14276889  0.55908195     0.38700
H714        H  0.84360421  0.24104575  0.67631074     0.35200
H715        H  0.66832165  0.40072316  0.61006221     0.27000
H716        H  0.91237311  0.32889528  0.61459646     0.32900
H717        H  0.91755143  0.16963047  0.60421987     0.38800
H718        H  0.60522505  0.26832846  0.58555338     0.33300
H719        H  0.60415162  0.14169888  0.62360813     0.32100
H720        H  0.67090643  0.08417093  0.61349728     0.33800
H721        H  0.84303486  0.08025438  0.61599619     0.32800
H722        H  0.66975532  0.32826394  0.52514894     0.36800
H723        H  0.73577914  0.27556640  0.45634172     0.29500
H724        H  0.77024216  0.24433244  0.78175704     0.33800
H725        H  0.88200362  0.12290783  0.67069140     0.36600
H726        H  0.60248093  0.19006913  0.64179261     0.29200
H727        H  0.77139086  0.23922497  0.44431268     0.42100
H728        H  0.79932951  0.39509837  0.59493406     0.32100
H729        H  0.71617849  0.39616562  0.62919474     0.39800
H730        H  0.79430913  0.08489490  0.59908042     0.31600
H731        H  0.91037283  0.28007516  0.63132153     0.31700
H732        H  0.80584415  0.21447111  0.75921004     0.31900
O733        O  0.90840469  0.09022678  0.28809819    -0.74400
O734        O  0.93905926  0.04683478  0.23788692    -0.53300
C735        C  0.91462725  0.07942290  0.25018198     0.79400
O736        O  0.08984555  0.07619487  0.41876838    -0.59000
O737        O  0.05193803  0.03896582  0.46881593    -0.52000
C738        C  0.08149671  0.06705889  0.45665692     0.71400
O739        O  0.07952758  0.07890062  0.28098494    -0.73500
O740        O  0.03640557  0.04233772  0.23360796    -0.54100
C741        C  0.06717587  0.07054221  0.24387729     0.77400
O742        O  0.91257271  0.08178749  0.42607560    -0.58700
O743        O  0.95312216  0.04239514  0.47309748    -0.51800
C744        C  0.92369043  0.07171974  0.46303027     0.74000
Zr745      Zr  0.93135026  0.06357470  0.35602527     2.54700
O746        O  0.94150139  0.14402351  0.35979804    -0.79200
O747        O  0.85003114  0.07006889  0.35740565    -0.92700
Zr748      Zr  0.06265558  0.05503642  0.35037303     2.64700
O749        O  0.06851802  0.13603843  0.34955211    -0.97600
O750        O  0.14336247  0.04519119  0.34662879    -0.79700
O751        O  0.99451937  0.06011017  0.31296642    -0.83000
O752        O  0.99952158  0.05959430  0.39359737    -2.17700
O753        O  0.90305267  0.91354230  0.42828279    -0.66400
O754        O  0.94973667  0.94686132  0.47453177    -0.51000
C755        C  0.91673011  0.92125660  0.46510620     0.72300
O756        O  0.07161282  0.90354177  0.27697580    -0.59300
O757        O  0.03136883  0.94386429  0.23063176    -0.51300
C758        C  0.06085968  0.91432409  0.24004954     0.74200
O759        O  0.08382277  0.90104607  0.41225627    -0.70700
O760        O  0.05089248  0.93899890  0.46497757    -0.49400
C761        C  0.07849944  0.90985929  0.45040363     0.78900
O762        O  0.89439981  0.90885783  0.29298496    -0.66100
O763        O  0.93083609  0.94404724  0.24061125    -0.53300
C764        C  0.90154260  0.91638649  0.25499130     0.73900
Zr765      Zr  0.92239810  0.93283220  0.35814602     2.77500
O766        O  0.91737840  0.85177691  0.35987418    -0.96800
O767        O  0.84168283  0.94332747  0.36213490    -0.77600
Zr768      Zr  0.05322006  0.92367826  0.34718470     2.70100
O769        O  0.04037137  0.84348684  0.34656454    -0.78900
O770        O  0.13392611  0.91719552  0.33943049    -0.98000
Zr771      Zr  0.98647094  0.99375554  0.27288161     2.21500
Zr772      Zr  0.99906006  0.99204202  0.43265437     2.11100
O773        O  0.99147405  0.92586416  0.39274681    -2.46600
O774        O  0.98401294  0.92722221  0.31239533    -0.78700
O775        O  0.92934285  0.99839286  0.39730808    -0.70900
O776        O  0.05602428  0.99019727  0.30885393    -2.31800
O777        O  0.92263331  0.99789308  0.31672081    -2.28000
O778        O  0.06248315  0.98821744  0.38873546    -0.72600
H779        H  0.00200932  0.08535094  0.41133226     0.79400
H780        H  0.08084830  0.98912782  0.28997034     0.80500
H781        H  0.99135403  0.89969959  0.40992354     0.82700
H782        H  0.89537524  0.99949168  0.30085310     0.80300
H783        H  0.14744164  0.01579512  0.33331114     0.43300
H784        H  0.14662347  0.93642565  0.36130990     0.42300
H785        H  0.00997965  0.83985864  0.33482260     0.42000
H786        H  0.93455493  0.84277313  0.38451267     0.39900
H787        H  0.83791434  0.97162830  0.37744387     0.43000
H788        H  0.83934044  0.05212670  0.33377463     0.37800
H789        H  0.96436294  0.15065101  0.33873880     0.43900
H790        H  0.05309900  0.14610095  0.37476613     0.40400
H791        H  0.88578990  0.84549143  0.36692815     0.45300
H792        H  0.84393114  0.10132770  0.34948018     0.44000
H793        H  0.10059433  0.14222905  0.35480382     0.44100
H794        H  0.14101628  0.88641558  0.34814423     0.44500
O795        O  0.42247103  0.90914615  0.92820285    -0.74400
O796        O  0.37054628  0.95515541  0.89898509    -0.53300
C797        C  0.38210591  0.92242766  0.92220956     0.79400
O798        O  0.57889884  0.08732770  0.93249069    -0.59000
O799        O  0.63072717  0.04335268  0.90072719    -0.52000
C800        C  0.61934856  0.07532127  0.92503062     0.71400
O801        O  0.42935628  0.08103667  0.94282976    -0.73500
O802        O  0.37370582  0.05153195  0.90281146    -0.54100
C803        C  0.38807321  0.07511431  0.93309502     0.77400
O804        O  0.57224942  0.90187301  0.92511143    -0.58700
O805        O  0.62723376  0.94492247  0.89689693    -0.51800
C806        C  0.61349326  0.91227239  0.91898064     0.74000
Zr807      Zr  0.49796318  0.93032731  0.90942399     2.54700
O808        O  0.49630825  0.92883065  0.98402539    -0.79200
O809        O  0.49605078  0.84946108  0.90274607    -0.92700
Zr810      Zr  0.50356430  0.06105099  0.91867897     2.64700
O811        O  0.51010752  0.04746000  0.99218440    -0.97600
O812        O  0.50039452  0.14134321  0.92897991    -0.79700
O813        O  0.45688847  0.99749432  0.91496387    -0.83000
O814        O  0.54484190  0.99384785  0.91508923    -2.17700
O815        O  0.56844576  0.90221577  0.78146477    -0.66400
O816        O  0.62539397  0.94079320  0.81189596    -0.51000
C817        C  0.61011740  0.90834613  0.79001304     0.72300
O818        O  0.42902279  0.09743625  0.77966564    -0.59300
O819        O  0.37353014  0.06009114  0.81299739    -0.51300
C820        C  0.38757864  0.09018736  0.78799380     0.74200
O821        O  0.57860429  0.09120896  0.77917716    -0.70700
O822        O  0.63019537  0.04349624  0.80639184    -0.49400
C823        C  0.61879055  0.07674439  0.78376972     0.75500
O824        O  0.42053948  0.91744383  0.77332073    -0.66100
O825        O  0.36886577  0.96044962  0.80636982    -0.53300
C826        C  0.38016799  0.92924281  0.78138346     0.73900
Zr827      Zr  0.49679000  0.93996437  0.78912483     2.77500
O828        O  0.50253483  0.96109093  0.71728316    -0.96800
O829        O  0.48864100  0.86335944  0.76535697    -0.77600
Zr830      Zr  0.50295207  0.07053244  0.79814049     2.70100
O831        O  0.50160952  0.07548706  0.72362199    -0.78900
O832        O  0.50715558  0.15118947  0.80621257    -0.98000
Zr833      Zr  0.41293174  0.00460651  0.85418950     2.21500
Zr834      Zr  0.58755189  0.99682877  0.85330677     2.11100
O835        O  0.54412941  0.00317985  0.79180810    -2.46600
O836        O  0.45564368  0.00726288  0.79253784    -0.78700
O837        O  0.54086059  0.93251176  0.84896806    -0.70900
O838        O  0.45953710  0.06914865  0.85875047    -2.31800
O839        O  0.45331978  0.93589961  0.84963324    -2.28000
O840        O  0.54718863  0.06512090  0.85822416    -0.72600
H841        H  0.56408811  0.99133190  0.93871637     0.79400
H842        H  0.44187340  0.09601414  0.86079793     0.80500
H843        H  0.56304365  0.00358593  0.76774002     0.82700
H844        H  0.43339144  0.91056898  0.84854632     0.80300
H845        H  0.49715510  0.15370900  0.90099588     0.43300
H846        H  0.53159635  0.15608357  0.82631957     0.42300
H847        H  0.49975057  0.10782707  0.71788816     0.42000
H848        H  0.53251967  0.95060321  0.70879709     0.39900
H849        H  0.49389229  0.84502581  0.79013407     0.43000
H850        H  0.46847421  0.84297664  0.88689193     0.37800
H851        H  0.50728358  0.89875399  0.99131148     0.43900
H852        H  0.54176334  0.03907258  0.99671078     0.40400
H853        H  0.48139529  0.94094140  0.70288176     0.45300
H854        H  0.48960290  0.83856640  0.93076635     0.44000
H855        H  0.50737646  0.07734711  0.00488800     0.44100
H856        H  0.51941182  0.16212056  0.77988784     0.44500
O857        O  0.07341933  0.41464138  0.93591244    -0.74400
O858        O  0.03643325  0.36460579  0.89517616    -0.53300
C859        C  0.06424365  0.37485070  0.92403394     0.79400
O860        O  0.90332316  0.57457753  0.92050983    -0.59000
O861        O  0.95495940  0.62569881  0.89934806    -0.52000
C862        C  0.91918537  0.61424577  0.91871924     0.71400
O863        O  0.89485707  0.42760603  0.91648337    -0.73500
O864        O  0.93551591  0.37209416  0.88678363    -0.54100
C865        C  0.90321200  0.38630523  0.90941074     0.77400
O866        O  0.07724862  0.56224987  0.94688075    -0.58700
O867        O  0.05420302  0.61984993  0.90630319    -0.51800
C868        C  0.07490584  0.60364953  0.93749845     0.74000
Zr869      Zr  0.05535690  0.49071323  0.91912970     2.54700
O870        O  0.04315339  0.48556330  0.99273315    -0.79200
O871        O  0.13623779  0.48934448  0.92818478    -0.92700
Zr872      Zr  0.92514062  0.50038070  0.90135268     2.64700
O873        O  0.91295590  0.49908031  0.97526183    -0.97600
O874        O  0.84583462  0.50659696  0.88500319    -0.79700
O875        O  0.98680647  0.45185752  0.91064082    -0.83000
O876        O  0.99319720  0.53878125  0.91344587    -2.17700
O877        O  0.10648546  0.56796980  0.78834130    -0.66400
O878        O  0.06700869  0.62323917  0.81990832    -0.51000
C879        C  0.09924791  0.60911821  0.79726095     0.72300
O880        O  0.92708479  0.43412135  0.75336400    -0.59300
O881        O  0.94624111  0.37699896  0.79637679    -0.51300
C882        C  0.92788252  0.39292313  0.76386636     0.74200
O883        O  0.92338372  0.58321021  0.77003380    -0.70700
O884        O  0.96537460  0.63215093  0.80777536    -0.49400
C885        C  0.93527765  0.62277918  0.78073086     0.75500
O886        O  0.09345182  0.41910940  0.77867866    -0.66100
O887        O  0.04218872  0.36912216  0.80285811    -0.53300
C888        C  0.07691227  0.37961248  0.78171900     0.73900
Zr889      Zr  0.07463574  0.49472405  0.79987874     2.77500
O890        O  0.08604571  0.49675692  0.72594727    -0.96800
O891        O  0.15495479  0.48684288  0.80997053    -0.77600
Zr892      Zr  0.94483201  0.50624610  0.78267508     2.70100
O893        O  0.96059508  0.51724080  0.71017040    -0.78900
O894        O  0.86425886  0.50561905  0.77098097    -0.98000
Zr895      Zr  0.99334122  0.41128278  0.84802369     2.21500
Zr896      Zr  0.00673816  0.58471876  0.85511797     2.11100
O897        O  0.01340221  0.54444112  0.79189399    -2.46600
O898        O  0.00616580  0.45684228  0.78909257    -0.78700
O899        O  0.06961108  0.53623961  0.86162196    -0.70900
O900        O  0.93047346  0.45959228  0.83976602    -2.31800
O901        O  0.06297822  0.44911569  0.85781124    -2.28000
O902        O  0.93747778  0.54712544  0.84423351    -0.72600
H903        H  0.99067161  0.55636067  0.93814382     0.79400
H904        H  0.90318788  0.44291083  0.83528794     0.80500
H905        H  0.01838360  0.56444540  0.76916721     0.82700
H906        H  0.08761080  0.42843866  0.85986861     0.80300
H907        H  0.83045261  0.50316956  0.91167795     0.43300
H908        H  0.85171928  0.52223120  0.79459404     0.42300
H909        H  0.98615599  0.49721964  0.70448412     0.42000
H910        H  0.07450353  0.52616751  0.71725097     0.39900
H911        H  0.16286978  0.51012467  0.83032897     0.43000
H912        H  0.14706946  0.46789038  0.90732301     0.37800
H913        H  0.01147611  0.47636125  0.99536083     0.43900
H914        H  0.92914484  0.52547020  0.98604594     0.40400
H915        H  0.11891543  0.49915735  0.72274594     0.45300
H916        H  0.14099750  0.47410471  0.95474665     0.44000
H917        H  0.88090485  0.50648082  0.97869324     0.44100
H918        H  0.85945516  0.52547372  0.74715216     0.44500
C919        C  0.65347224  0.09938173  0.75951586    -0.15500
C920        C  0.64963125  0.14297119  0.75117769    -0.30700
H921        H  0.68046261  0.07989187  0.74627467     0.13500
H922        H  0.62445141  0.16292093  0.76668156     0.14100
C923        C  0.90048904  0.09595809  0.49602502    -0.15500
C924        C  0.87134573  0.12871917  0.48695212    -0.30700
H925        H  0.90702175  0.08675245  0.52770584     0.13500
H926        H  0.86512608  0.13780357  0.45517218     0.14100
C927        C  0.87010851  0.33807357  0.74782970    -0.15500
C928        C  0.90514612  0.36273058  0.73581429    -0.30700
H929        H  0.86168078  0.33559172  0.78018423     0.13500
H930        H  0.91218343  0.36727877  0.70340064     0.14100
C931        C  0.65005300  0.14341445  0.95527405    -0.15500
C932        C  0.65454594  0.09961739  0.94766015    -0.30700
H933        H  0.62388947  0.16230622  0.93997858     0.13500
H934        H  0.68235747  0.08109539  0.96069725     0.14100
C935        C  0.84455740  0.36744147  0.95867966    -0.15500
C936        C  0.87428046  0.35342384  0.93048931    -0.30700
H937        H  0.84086150  0.40282491  0.96496761     0.13500
H938        H  0.88022133  0.31801085  0.92607795     0.14100
C939        C  0.89247540  0.10603475  0.21780369    -0.15500
C940        C  0.86691020  0.14177703  0.22608609    -0.30700
H941        H  0.89719171  0.09562519  0.18614195     0.13500
H942        H  0.86159262  0.15180737  0.25777686     0.14100
C943        C  0.62857574  0.84153546  0.74950930    -0.15500
C944        C  0.64258649  0.87640712  0.77224337    -0.30700
H945        H  0.59296704  0.83552337  0.74551162     0.13500
H946        H  0.67811618  0.88384501  0.77449102     0.14100
C947        C  0.91276040  0.65930235  0.75893901    -0.15500
C948        C  0.86788942  0.66234625  0.75956428    -0.30700
H949        H  0.93230665  0.67950414  0.73795016     0.13500
H950        H  0.84904210  0.64326496  0.78196590     0.14100
C951        C  0.86075054  0.86835787  0.49089799    -0.15500
C952        C  0.89281098  0.89874450  0.49884442    -0.30700
H953        H  0.85242341  0.86004298  0.45929069     0.13500
H954        H  0.90205913  0.90660001  0.53032285     0.14100
C955        C  0.85147794  0.64205777  0.95151550    -0.15500
C956        C  0.89507704  0.64787953  0.94298272    -0.30700
H957        H  0.83218242  0.61661131  0.93550536     0.13500
H958        H  0.91367198  0.67534040  0.95661814     0.14100
C959        C  0.64705012  0.88583758  0.94093143    -0.15500
C960        C  0.64029680  0.84237830  0.94806043    -0.30700
H961        H  0.67570867  0.90290498  0.95434787     0.13500
H962        H  0.61349274  0.82446597  0.93253693     0.14100
C963        C  0.87724885  0.88763809  0.18698461    -0.15500
C964        C  0.87292715  0.88976209  0.22764163    -0.30700
H965        H  0.90231202  0.90779418  0.17158222     0.13500
H966        H  0.84767819  0.86927310  0.24247210     0.14100
C967        C  0.13550421  0.12422205  0.48021716    -0.15500
C968        C  0.10690047  0.09094882  0.48895251    -0.30700
H969        H  0.14113860  0.13352585  0.44843777     0.13500
H970        H  0.10062471  0.08203763  0.52072882     0.14100
C971        C  0.35412788  0.11843312  0.76657734    -0.15500
C972        C  0.36728852  0.14704896  0.73720163    -0.30700
H973        H  0.31874569  0.11393491  0.77297958     0.13500
H974        H  0.40245546  0.14915147  0.72907172     0.14100
C975        C  0.14306052  0.34227435  0.75362123    -0.15500
C976        C  0.09839145  0.34434437  0.75726548    -0.30700
H977        H  0.16420470  0.36294248  0.77311247     0.13500
H978        H  0.07719732  0.32150140  0.74002755     0.14100
C979        C  0.16048928  0.62978066  0.75118726    -0.15500
C980        C  0.12894417  0.64249910  0.77809708    -0.30700
H981        H  0.16588026  0.59462850  0.74486985     0.13500
H982        H  0.12171023  0.67769838  0.78238909     0.14100
C983        C  0.10729525  0.88349305  0.47789980    -0.15500
C984        C  0.10406088  0.88297517  0.51886796    -0.30700
H985        H  0.13208173  0.86243938  0.46306990     0.13500
H986        H  0.07921478  0.90350893  0.53415275     0.14100
C987        C  0.34704535  0.86032205  0.75631447    -0.15500
C988        C  0.34491564  0.90487988  0.75948866    -0.30700
H989        H  0.37057299  0.84165777  0.77508318     0.13500
H990        H  0.31944573  0.92358636  0.74307446     0.14100
C991        C  0.09727846  0.63359398  0.96618066    -0.15500
C992        C  0.12854117  0.66296942  0.95447184    -0.30700
H993        H  0.09307936  0.62569770  0.99847193     0.13500
H994        H  0.13489921  0.66865683  0.92207826     0.14100
C995        C  0.35096125  0.85480282  0.95238061    -0.15500
C996        C  0.34721646  0.89872139  0.94526315    -0.30700
H997        H  0.37595547  0.83525524  0.93619438     0.13500
H998        H  0.32021735  0.91777923  0.95901945     0.14100
C999        C  0.12020214  0.86477115  0.21451782    -0.15500
C1000       C  0.08508604  0.89154504  0.20633390    -0.30700
H1001       H  0.13031060  0.85942164  0.24619436     0.13500
H1002       H  0.07489491  0.89762068  0.17481289     0.14100
C1003       C  0.13209648  0.34662704  0.95526425    -0.15500
C1004       C  0.08888181  0.33951663  0.94558557    -0.30700
H1005       H  0.14975859  0.37507928  0.94248826     0.13500
H1006       H  0.07137825  0.30995603  0.95611719     0.14100
C1007       C  0.35566362  0.09561561  0.96070609    -0.15500
C1008       C  0.33280830  0.13254303  0.95073611    -0.30700
H1009       H  0.35645138  0.08410050  0.99226733     0.13500
H1010       H  0.33367894  0.14508174  0.91947976     0.14100
C1011       C  0.12251928  0.12570950  0.21929695    -0.15500
C1012       C  0.09048283  0.09518263  0.21075953    -0.30700
H1013       H  0.13127347  0.13276669  0.25105677     0.13500
H1014       H  0.08145248  0.08800530  0.17910198     0.14100
C1015       C  0.13543518  0.38875426  0.45999027    -0.12400
C1016       C  0.14593561  0.36128838  0.48510255    -0.13900
C1017       C  0.14566611  0.61439755  0.24944212    -0.12400
C1018       C  0.15731693  0.64143068  0.22444461    -0.13900
C1019       C  0.13833752  0.62042651  0.45789297    -0.12400
C1020       C  0.14697274  0.64853427  0.48344840    -0.13900
C1021       C  0.14665166  0.35435726  0.22646156    -0.12400
C1022       C  0.13719548  0.38265045  0.25151749    -0.13900
C1023       C  0.35040378  0.84682016  0.48514059    -0.12400
C1024       C  0.37793568  0.85437875  0.45881228    -0.13900
C1025       C  0.63576021  0.83701128  0.22065694    -0.12400
C1026       C  0.60834069  0.84654325  0.24644664    -0.13900
C1027       C  0.61047358  0.84439297  0.45611436    -0.12400
C1028       C  0.63793165  0.83449548  0.48173433    -0.13900
C1029       C  0.34954939  0.85878172  0.22226189    -0.12400
C1030       C  0.37676834  0.86681382  0.24860686    -0.13900
C1031       C  0.86693505  0.61870669  0.46257423    -0.12400
C1032       C  0.85786993  0.64472008  0.48952754    -0.13900
C1033       C  0.84016370  0.36649157  0.22623175    -0.12400
C1034       C  0.85248077  0.39464717  0.24993123    -0.13900
C1035       C  0.84723248  0.35723366  0.47945355    -0.12400
C1036       C  0.85787956  0.38656660  0.45591022    -0.13900
C1037       C  0.85422280  0.65361377  0.22458218    -0.12400
C1038       C  0.86193665  0.62638284  0.25117953    -0.13900
C1039       C  0.61210530  0.13913404  0.45524832    -0.12400
C1040       C  0.63915481  0.15116692  0.48049331    -0.13900
C1041       C  0.38641321  0.14141269  0.24304828    -0.12400
C1042       C  0.35773465  0.15341425  0.21949317    -0.13900
C1043       C  0.37952289  0.14174310  0.44718496    -0.12400
C1044       C  0.35168950  0.15490486  0.47090671    -0.13900
C1045       C  0.64774714  0.14498377  0.22451122    -0.12400
C1046       C  0.61958459  0.13338926  0.24874303    -0.13900
C1047       C  0.63414592  0.35384993  0.96415346    -0.12400
C1048       C  0.60737433  0.37749290  0.94691595    -0.13900
C1049       C  0.35046656  0.62934018  0.96867962    -0.12400
C1050       C  0.37502673  0.60199471  0.95321871    -0.13900
C1051       C  0.63338729  0.62542549  0.97643576    -0.12400
C1052       C  0.60708226  0.60038943  0.96007624    -0.13900
C1053       C  0.37500779  0.37785930  0.94623018    -0.12400
C1054       C  0.34863533  0.35334587  0.96306481    -0.13900
C1055       C  0.64511000  0.63352172  0.74562917    -0.12400
C1056       C  0.61841970  0.60834941  0.76080114    -0.13900
C1057       C  0.64335310  0.35845479  0.73904546    -0.12400
C1058       C  0.61778470  0.38383416  0.75579511    -0.13900
C1059       C  0.38517867  0.38284605  0.75144176    -0.12400
C1060       C  0.35855277  0.35760916  0.73555681    -0.13900
C1061       C  0.36262038  0.63461095  0.72790915    -0.12400
C1062       C  0.38709485  0.60784053  0.74420246    -0.13900
loop_ 
_geom_bond_atom_site_label_1 
_geom_bond_atom_site_label_2 
_geom_bond_distance 
_geom_bond_site_symmetry_2 
_ccdc_geom_bond_type 
N1            C6   1.357       .  A
N1            C5   1.357       .  A
N1           H33   1.040       .  S
N2            C9   1.353       .  A
N2           C10   1.353       .  A
N3            C8   1.355       .  A
N3            C7   1.356       .  A
N3           H34   1.039       .  S
N4           C11   1.353       .  A
N4           C12   1.352       .  A
C5           C13   1.387       .  A
C5           C21   1.418       .  A
C6           C22   1.418       .  A
C6           C14   1.388       .  A
C7           C15   1.388       .  A
C7           C24   1.416       .  A
C8           C23   1.416       .  A
C8           C16   1.389       .  A
C9           C21   1.414       .  A
C9           C17   1.387       .  A
C10          C24   1.414       .  A
C10          C18   1.386       .  A
C11          C19   1.386       .  A
C11          C22   1.413       .  A
C12          C20   1.387       .  A
C12          C23   1.413       .  A
C13          C14   1.373       .  A
C13          H25   1.082       .  S
C14          H26   1.082       .  S
C15          C16   1.372       .  A
C15          H27   1.082       .  S
C16          H28   1.082       .  S
C17          C18   1.375       .  A
C17          H29   1.082       .  S
C18          H30   1.082       .  S
C19          C20   1.373       .  A
C19          H31   1.082       .  S
C20          H32   1.083       .  S
C21        C1059   1.460       .  S
C22        C1058   1.457       .  S
C23        C1056   1.451       .  S
C24        C1062   1.456       .  S
N35          C40   1.355       .  A
N35          C39   1.355       .  A
N35          H67   1.039       .  S
N36          C43   1.354       .  A
N36          C44   1.353       .  A
N37          C42   1.356       .  A
N37          C41   1.356       .  A
N37          H68   1.040       .  S
N38          C45   1.355       .  A
N38          C46   1.354       .  A
C39          C47   1.388       .  A
C39          C55   1.415       .  A
C40          C56   1.416       .  A
C40          C48   1.388       .  A
C41          C49   1.388       .  A
C41          C58   1.416       .  A
C42          C57   1.417       .  A
C42          C50   1.388       .  A
C43          C55   1.413       .  A
C43          C51   1.386       .  A
C44          C58   1.413       .  A
C44          C52   1.387       .  A
C45          C53   1.385       .  A
C45          C56   1.415       .  A
C46          C54   1.386       .  A
C46          C57   1.414       .  A
C47          C48   1.372       .  A
C47          H59   1.082       .  S
C48          H60   1.082       .  S
C49          C50   1.373       .  A
C49          H61   1.083       .  S
C50          H62   1.082       .  S
C51          C52   1.371       .  A
C51          H63   1.082       .  S
C52          H64   1.082       .  S
C53          C54   1.374       .  A
C53          H65   1.082       .  S
C54          H66   1.082       .  S
C55        C1052   1.455       .  S
C56        C1050   1.459       .  S
C57        C1053   1.458       .  S
C58        C1048   1.455       .  S
N69          C74   1.354       .  A
N69          C73   1.354       .  A
N69         H101   1.040       .  S
N70          C77   1.348       .  A
N70          C78   1.348       .  A
N71          C76   1.355       .  A
N71          C75   1.355       .  A
N71         H102   1.039       .  S
N72          C79   1.350       .  A
N72          C80   1.351       .  A
C73          C81   1.388       .  A
C73          C89   1.414       .  A
C74          C90   1.414       .  A
C74          C82   1.388       .  A
C75          C83   1.387       .  A
C75          C92   1.415       .  A
C76          C91   1.417       .  A
C76          C84   1.388       .  A
C77          C89   1.405       .  A
C77          C85   1.387       .  A
C78          C92   1.406       .  A
C78          C86   1.387       .  A
C79          C87   1.387       .  A
C79          C90   1.409       .  A
C80          C88   1.387       .  A
C80          C91   1.410       .  A
C81          C82   1.375       .  A
C81          H93   1.082       .  S
C82          H94   1.082       .  S
C83          C84   1.376       .  A
C83          H95   1.082       .  S
C84          H96   1.082       .  S
C85          C86   1.371       .  A
C85          H97   1.083       .  S
C86          H98   1.083       .  S
C87          C88   1.373       .  A
C87          H99   1.082       .  S
C88         H100   1.082       .  S
C89        C1043   1.446       .  S
C90        C1039   1.450       .  S
C91        C1046   1.453       .  S
C92        C1041   1.448       .  S
N103        C108   1.353       .  A
N103        C107   1.356       .  A
N103        H135   1.039       .  S
N104        C111   1.355       .  A
N104        C112   1.352       .  A
N105        C110   1.359       .  A
N105        C109   1.353       .  A
N105        H136   1.038       .  S
N106        C113   1.347       .  A
N106        C114   1.351       .  A
C107        C115   1.388       .  A
C107        C123   1.417       .  A
C108        C124   1.416       .  A
C108        C116   1.389       .  A
C109        C117   1.390       .  A
C109        C126   1.419       .  A
C110        C125   1.419       .  A
C110        C118   1.386       .  A
C111        C123   1.415       .  A
C111        C119   1.385       .  A
C112        C126   1.417       .  A
C112        C120   1.389       .  A
C113        C121   1.389       .  A
C113        C124   1.407       .  A
C114        C122   1.385       .  A
C114        C125   1.408       .  A
C115        C116   1.376       .  A
C115        H127   1.083       .  S
C116        H128   1.083       .  S
C117        C118   1.376       .  A
C117        H129   1.082       .  S
C118        H130   1.082       .  S
C119        C120   1.375       .  A
C119        H131   1.082       .  S
C120        H132   1.082       .  S
C121        C122   1.370       .  A
C121        H133   1.083       .  S
C122        H134   1.082       .  S
C123       C1038   1.464       .  S
C124       C1034   1.441       .  S
C125       C1036   1.460       .  S
C126       C1031   1.449       .  S
N137        C142   1.357       .  A
N137        C141   1.354       .  A
N137        H169   1.038       .  S
N138        C145   1.350       .  A
N138        C146   1.352       .  A
N139        C144   1.355       .  A
N139        C143   1.357       .  A
N139        H170   1.038       .  S
N140        C147   1.351       .  A
N140        C148   1.350       .  A
C141        C149   1.389       .  A
C141        C157   1.418       .  A
C142        C158   1.417       .  A
C142        C150   1.386       .  A
C143        C151   1.387       .  A
C143        C160   1.419       .  A
C144        C159   1.418       .  A
C144        C152   1.387       .  A
C145        C157   1.412       .  A
C145        C153   1.388       .  A
C146        C160   1.413       .  A
C146        C154   1.387       .  A
C147        C155   1.386       .  A
C147        C158   1.409       .  A
C148        C156   1.388       .  A
C148        C159   1.411       .  A
C149        C150   1.375       .  A
C149        H161   1.082       .  S
C150        H162   1.082       .  S
C151        C152   1.375       .  A
C151        H163   1.082       .  S
C152        H164   1.082       .  S
C153        C154   1.374       .  A
C153        H165   1.083       .  S
C154        H166   1.083       .  S
C155        C156   1.373       .  A
C155        H167   1.083       .  S
C156        H168   1.082       .  S
C157       C1030   1.448       .  S
C158       C1026   1.456       .  S
C159       C1027   1.452       .  S
C160       C1024   1.460       .  S
N171        C176   1.357       .  A
N171        C175   1.354       .  A
N171        H203   1.039       .  S
N172        C179   1.350       .  A
N172        C180   1.352       .  A
N173        C178   1.353       .  A
N173        C177   1.356       .  A
N173        H204   1.039       .  S
N174        C181   1.352       .  A
N174        C182   1.349       .  A
C175        C183   1.388       .  A
C175        C191   1.416       .  A
C176        C192   1.416       .  A
C176        C184   1.386       .  A
C177        C185   1.387       .  A
C177        C194   1.416       .  A
C178        C193   1.416       .  A
C178        C186   1.388       .  A
C179        C191   1.411       .  A
C179        C187   1.388       .  A
C180        C194   1.410       .  A
C180        C188   1.386       .  A
C181        C189   1.386       .  A
C181        C192   1.410       .  A
C182        C190   1.388       .  A
C182        C193   1.410       .  A
C183        C184   1.375       .  A
C183        H195   1.082       .  S
C184        H196   1.082       .  S
C185        C186   1.375       .  A
C185        H197   1.082       .  S
C186        H198   1.082       .  S
C187        C188   1.373       .  A
C187        H199   1.082       .  S
C188        H200   1.083       .  S
C189        C190   1.372       .  A
C189        H201   1.082       .  S
C190        H202   1.083       .  S
C191       C1015   1.448       .  S
C192       C1019   1.457       .  S
C193       C1017   1.446       .  S
C194       C1022   1.457       .  S
Zr205       O206   2.442       .  S
Zr205       O207   2.440       .  S
Zr205       O208   2.460       .  S
Zr205       O211   2.446       .  S
Zr205       O213   2.382       .  S
Zr205       O214   2.387       .  S
Zr205       O215   2.410       .  S
Zr205       O216   2.400       .  S
O206        H262   0.990       .  S
O206        H270   0.990       .  S
O207        C227   1.285       .  A
O208        C229   1.287       .  A
O209       Zr219   2.408       .  S
O209        C228   1.278       .  A
O210       Zr218   2.433       .  S
O210        C229   1.283       .  A
O211        C228   1.286       .  A
O212       Zr220   2.426       .  S
O212        C227   1.281       .  A
O213       Zr218   2.399       .  S
O213       Zr220   2.382       .  S
O214       Zr219   2.391       .  S
O214       Zr220   2.376       .  S
O214        H249   0.965       .  S
O215       Zr218   2.405       .  S
O215       Zr235   2.393       .  S
O215        H252   0.963       .  S
O216       Zr219   2.391       .  S
O216       Zr235   2.390       .  S
Zr217       O242   2.444   1_554  S
Zr217       O236   2.453   1_554  S
Zr217       O244   2.436   1_554  S
Zr217       O232   2.424   1_554  S
Zr217       O223   2.403       .  S
Zr217       O224   2.410       .  S
Zr217       O225   2.381       .  S
Zr217       O226   2.379       .  S
Zr218       O237   2.439       .  S
Zr218       O230   2.436       .  S
Zr218       O231   2.439       .  S
Zr218       O224   2.396       .  S
Zr218       O225   2.389       .  S
Zr219       O221   2.436       .  S
Zr219       O243   2.437       .  S
Zr219       O245   2.416       .  S
Zr219       O223   2.381       .  S
Zr219       O226   2.387       .  S
Zr220       O246   2.439       .  S
Zr220       O247   2.435       .  S
Zr220       O222   2.434       .  S
Zr220       O223   2.397       .  S
Zr220       O224   2.398       .  S
O221        H258   0.990       .  S
O222        H253   0.990       .  S
O222        H267   0.990       .  S
O224        H250   0.969       .  S
O225       Zr235   2.376       .  S
O226       Zr235   2.376       .  S
O226        H251   0.964       .  S
C227       C1011   1.479       .  S
C228       C1042   1.432       .  S
C229       C1021   1.442       .  S
O230        H266   0.990       .  S
O231        C233   1.286   1_554  A
O232        C233   1.282       .  A
C233       C1003   1.462       .  S
O234       Zr235   2.441       .  S
O234        H263   0.991       .  S
Zr235       O238   2.439       .  S
Zr235       O239   2.439       .  S
Zr235       O240   2.421       .  S
O236        C241   1.287       .  A
O237        H254   0.990       .  S
O237        H269   0.990       .  S
O238        H255   0.990       .  S
O239        H259   0.990       .  S
O239        H268   0.990       .  S
O240        C241   1.280   1_554  A
C241       C1054   1.442       .  S
O242        H261   0.990       .  S
O242        H265   0.990       .  S
O243        H257   0.990       .  S
O243        H264   0.990       .  S
O244        C248   1.283       .  A
O245        C248   1.283   1_554  A
O246        H256   0.990       .  S
O247        H260   0.990       .  S
C248       C1008   1.478       .  S
Zr271       O272   2.440   1_554  S
Zr271       O273   2.455   1_554  S
Zr271       O274   2.436   1_554  S
Zr271       O277   2.427   1_554  S
Zr271       O279   2.379       .  S
Zr271       O280   2.385       .  S
Zr271       O281   2.417       .  S
Zr271       O282   2.404       .  S
O272        H328   0.991       .  S
O272        H336   0.990       .  S
O273        C293   1.286       .  A
O274        C295   1.282       .  A
O275       Zr285   2.408       .  S
O275        C294   1.283   1_554  A
O276       Zr284   2.426       .  S
O276        C295   1.282   1_554  A
O277        C294   1.282       .  A
O278       Zr286   2.423       .  S
O278        C293   1.280   1_554  A
O279       Zr284   2.397       .  S
O279       Zr286   2.376       .  S
O280       Zr285   2.384       .  S
O280       Zr286   2.379       .  S
O280        H315   0.965       .  S
O281       Zr284   2.396       .  S
O281       Zr301   2.406       .  S
O281        H318   0.965       .  S
O282       Zr285   2.382       .  S
O282       Zr301   2.391       .  S
Zr283       O308   2.442       .  S
Zr283       O302   2.427       .  S
Zr283       O310   2.439       .  S
Zr283       O298   2.436       .  S
Zr283       O289   2.394       .  S
Zr283       O290   2.408       .  S
Zr283       O291   2.384       .  S
Zr283       O292   2.379       .  S
Zr284       O303   2.436       .  S
Zr284       O296   2.436       .  S
Zr284       O297   2.429       .  S
Zr284       O290   2.405       .  S
Zr284       O291   2.392       .  S
Zr285       O287   2.435       .  S
Zr285       O309   2.436       .  S
Zr285       O311   2.409       .  S
Zr285       O289   2.387       .  S
Zr285       O292   2.382       .  S
Zr286       O312   2.435       .  S
Zr286       O313   2.436       .  S
Zr286       O288   2.436       .  S
Zr286       O289   2.390       .  S
Zr286       O290   2.391       .  S
O287        H324   0.990       .  S
O288        H319   0.990       .  S
O288        H333   0.990       .  S
O290        H316   0.965       .  S
O291       Zr301   2.377       .  S
O292       Zr301   2.378       .  S
O292        H317   0.965       .  S
C293       C1049   1.443       .  S
C294        C992   1.473       .  S
C295        C995   1.466       .  S
O296        H332   0.990       .  S
O297        C299   1.282       .  A
O298        C299   1.282       .  A
C299       C1029   1.431       .  S
O300       Zr301   2.438       .  S
O300        H329   0.990       .  S
Zr301       O304   2.435       .  S
Zr301       O305   2.439       .  S
Zr301       O306   2.433       .  S
O302        C307   1.283       .  A
O303        H320   0.990       .  S
O303        H335   0.990       .  S
O304        H321   0.990       .  S
O305        H325   0.990       .  S
O305        H334   0.990       .  S
O306        C307   1.283       .  A
C307        C999   1.475       .  S
O308        H327   0.990       .  S
O308        H331   0.990       .  S
O309        H323   0.990       .  S
O309        H330   0.990       .  S
O310        C314   1.284       .  A
O311        C314   1.278       .  A
O312        H322   0.990       .  S
O313        H326   0.990       .  S
C314       C1018   1.429       .  S
Zr337       O338   2.443       .  S
Zr337       O339   2.452       .  S
Zr337       O340   2.458       .  S
Zr337       O343   2.456       .  S
Zr337       O345   2.384       .  S
Zr337       O346   2.389       .  S
Zr337       O347   2.416       .  S
Zr337       O348   2.400       .  S
O338        H394   0.991       .  S
O338        H402   0.991       .  S
O339        C359   1.288       .  A
O340        C361   1.286       .  A
O341       Zr351   2.440       .  S
O341        C360   1.284       .  A
O342       Zr350   2.428       .  S
O342        C361   1.281       .  A
O343        C360   1.287       .  A
O344       Zr352   2.407       .  S
O344        C359   1.277       .  A
O345       Zr350   2.395       .  S
O345       Zr352   2.388       .  S
O346       Zr351   2.391       .  S
O346       Zr352   2.393       .  S
O346        H381   0.965       .  S
O347       Zr350   2.396       .  S
O347       Zr367   2.396       .  S
O347        H384   0.964       .  S
O348       Zr351   2.383       .  S
O348       Zr367   2.392       .  S
Zr349       O374   2.446       .  S
Zr349       O368   2.435       .  S
Zr349       O376   2.432       .  S
Zr349       O364   2.440       .  S
Zr349       O355   2.402       .  S
Zr349       O356   2.403       .  S
Zr349       O357   2.379       .  S
Zr349       O358   2.388       .  S
Zr350       O369   2.436       .  S
Zr350       O362   2.433       .  S
Zr350       O363   2.416       .  S
Zr350       O356   2.397       .  S
Zr350       O357   2.388       .  S
Zr351       O353   2.439       .  S
Zr351       O375   2.437       .  S
Zr351       O377   2.423       .  S
Zr351       O355   2.393       .  S
Zr351       O358   2.397       .  S
Zr352       O378   2.436       .  S
Zr352       O379   2.438       .  S
Zr352       O354   2.436       .  S
Zr352       O355   2.392       .  S
Zr352       O356   2.387       .  S
O353        H390   0.990       .  S
O354        H385   0.990       .  S
O354        H399   0.990       .  S
O356        H382   0.965       .  S
O357       Zr367   2.366       .  S
O358       Zr367   2.373       .  S
O358        H383   0.966       .  S
C359        C984   1.481       .  S
C360       C1023   1.445       .  S
C361       C1020   1.442       .  S
O362        H398   0.990       .  S
O363        C365   1.281       .  A
O364        C365   1.284       .  A
C365        C979   1.461       .  S
O366       Zr367   2.439       .  S
O366        H395   0.991       .  S
Zr367       O370   2.438       .  S
Zr367       O371   2.437       .  S
Zr367       O372   2.434       .  S
O368        C373   1.283       .  A
O369        H386   0.991       .  S
O369        H401   0.990       .  S
O370        H387   0.990       .  S
O371        H391   0.990       .  S
O371        H400   0.990       .  S
O372        C373   1.283       .  A
C373       C1061   1.441       .  S
O374        H393   0.990       .  S
O374        H397   0.990       .  S
O375        H389   0.990       .  S
O375        H396   0.990       .  S
O376        C380   1.284       .  A
O377        C380   1.283       .  A
O378        H388   0.991       .  S
O379        H392   0.990       .  S
C380        C987   1.464       .  S
Zr403       O404   2.439       .  S
Zr403       O405   2.460       .  S
Zr403       O406   2.449       .  S
Zr403       O409   2.435       .  S
Zr403       O411   2.379       .  S
Zr403       O412   2.381       .  S
Zr403       O413   2.412       .  S
Zr403       O414   2.414       .  S
O404        H460   0.990       .  S
O404        H468   0.990       .  S
O405        C425   1.288       .  A
O406        C427   1.287       .  A
O407       Zr417   2.431       .  S
O407        C426   1.284       .  A
O408       Zr416   2.411       .  S
O408        C427   1.281       .  A
O409        C426   1.284       .  A
O410       Zr418   2.413       .  S
O410        C425   1.279       .  A
O411       Zr416   2.385       .  S
O411       Zr418   2.372       .  S
O412       Zr417   2.390       .  S
O412       Zr418   2.375       .  S
O412        H447   0.966       .  S
O413       Zr416   2.389       .  S
O413       Zr433   2.401       .  S
O413        H450   0.966       .  S
O414       Zr417   2.385       .  S
O414       Zr433   2.406       .  S
Zr415       O440   2.441       .  S
Zr415       O434   2.429       .  S
Zr415       O442   2.434       .  S
Zr415       O430   2.448       .  S
Zr415       O421   2.394       .  S
Zr415       O422   2.402       .  S
Zr415       O423   2.376       .  S
Zr415       O424   2.388       .  S
Zr416       O435   2.435       .  S
Zr416       O428   2.436       .  S
Zr416       O429   2.410       .  S
Zr416       O422   2.395       .  S
Zr416       O423   2.385       .  S
Zr417       O419   2.433       .  S
Zr417       O441   2.441       .  S
Zr417       O443   2.423       .  S
Zr417       O421   2.393       .  S
Zr417       O424   2.392       .  S
Zr418       O444   2.434       .  S
Zr418       O445   2.436       .  S
Zr418       O420   2.439       .  S
Zr418       O421   2.382       .  S
Zr418       O422   2.388       .  S
O419        H456   0.990       .  S
O420        H451   0.990       .  S
O420        H465   0.990       .  S
O422        H448   0.966       .  S
O423       Zr433   2.376       .  S
O424       Zr433   2.383       .  S
O424        H449   0.964       .  S
C425       C1060   1.443       .  S
C426        C975   1.471       .  S
C427        C972   1.467       .  S
O428        H464   0.990       .  S
O429        C431   1.278       .  A
O430        C431   1.284       .  A
C431       C1044   1.430       .  S
O432       Zr433   2.440       .  S
O432        H461   0.990       .  S
Zr433       O436   2.438       .  S
Zr433       O437   2.440       .  S
Zr433       O438   2.431       .  S
O434        C439   1.282       .  A
O435        H452   0.990       .  S
O435        H467   0.990       .  S
O436        H453   0.990       .  S
O437        H457   0.991       .  S
O437        H466   0.989       .  S
O438        C439   1.284       .  A
C439        C967   1.477       .  S
O440        H459   0.991       .  S
O440        H463   0.990       .  S
O441        H455   0.990       .  S
O441        H462   0.990       .  S
O442        C446   1.283       .  A
O443        C446   1.282       .  A
O444        H454   0.990       .  S
O445        H458   0.990       .  S
C446       C1016   1.431       .  S
Zr469       O470   2.447       .  S
Zr469       O471   2.455       .  S
Zr469       O472   2.458       .  S
Zr469       O475   2.454       .  S
Zr469       O477   2.386       .  S
Zr469       O478   2.385       .  S
Zr469       O479   2.417       .  S
Zr469       O480   2.407       .  S
O470        H526   0.991       .  S
O470        H534   0.991       .  S
O471        C491   1.289       .  A
O472        C493   1.286       .  A
O473       Zr483   2.424       .  S
O473        C492   1.282       .  A
O474       Zr482   2.452       .  S
O474        C493   1.286       .  A
O475        C492   1.287       .  A
O476       Zr484   2.388       .  S
O476        C491   1.272       .  A
O477       Zr482   2.398       .  S
O477       Zr484   2.392       .  S
O478       Zr483   2.393       .  S
O478       Zr484   2.385       .  S
O478        H513   0.965       .  S
O479       Zr482   2.401       .  S
O479       Zr499   2.392       .  S
O479        H516   0.964       .  S
O480       Zr483   2.390       .  S
O480       Zr499   2.398       .  S
Zr481       O506   2.445   1_554  S
Zr481       O500   2.427   1_554  S
Zr481       O508   2.426   1_554  S
Zr481       O496   2.425   1_554  S
Zr481       O487   2.397       .  S
Zr481       O488   2.401       .  S
Zr481       O489   2.381       .  S
Zr481       O490   2.383       .  S
Zr482       O501   2.436       .  S
Zr482       O494   2.435       .  S
Zr482       O495   2.439       .  S
Zr482       O488   2.401       .  S
Zr482       O489   2.395       .  S
Zr483       O485   2.438       .  S
Zr483       O507   2.433       .  S
Zr483       O509   2.429       .  S
Zr483       O487   2.388       .  S
Zr483       O490   2.385       .  S
Zr484       O510   2.435       .  S
Zr484       O511   2.436       .  S
Zr484       O486   2.437       .  S
Zr484       O487   2.385       .  S
Zr484       O488   2.382       .  S
O485        H522   0.990       .  S
O486        H517   0.991       .  S
O486        H531   0.990       .  S
O488        H514   0.968       .  S
O489       Zr499   2.374       .  S
O490       Zr499   2.370       .  S
O490        H515   0.965       .  S
C491        C963   1.475       .  S
C492       C1025   1.441       .  S
C493       C1037   1.449       .  S
O494        H530   0.990       .  S
O495        C497   1.286   1_554  A
O496        C497   1.282       .  A
C497        C955   1.463       .  S
O498       Zr499   2.442       .  S
O498        H527   0.990       .  S
Zr499       O502   2.438       .  S
Zr499       O503   2.439       .  S
Zr499       O504   2.438       .  S
O500        C505   1.282   1_556  A
O501        H518   0.990       .  S
O501        H533   0.990       .  S
O502        H519   0.990       .  S
O503        H523   0.990       .  S
O503        H532   0.990       .  S
O504        C505   1.284       .  A
C505       C1051   1.438   1_554  S
O506        H525   0.990       .  S
O506        H529   0.990       .  S
O507        H521   0.990       .  S
O507        H528   0.990       .  S
O508        C512   1.282       .  A
O509        C512   1.284   1_554  A
O510        H520   0.990       .  S
O511        H524   0.990   1_554  S
C512        C960   1.461       .  S
Zr535       O536   2.440       .  S
Zr535       O537   2.443       .  S
Zr535       O538   2.453       .  S
Zr535       O541   2.447       .  S
Zr535       O543   2.383       .  S
Zr535       O544   2.384       .  S
Zr535       O545   2.410       .  S
Zr535       O546   2.407       .  S
O536        H592   0.991       .  S
O536        H600   0.990       .  S
O537        C557   1.284       .  A
O538        C559   1.287       .  A
O539       Zr549   2.420       .  S
O539        C558   1.283       .  A
O540       Zr548   2.414       .  S
O540        C559   1.280       .  A
O541        C558   1.287       .  A
O542       Zr550   2.409       .  S
O542        C557   1.278       .  A
O543       Zr548   2.389       .  S
O543       Zr550   2.375       .  S
O544       Zr549   2.395       .  S
O544       Zr550   2.373       .  S
O544        H579   0.965       .  S
O545       Zr548   2.396       .  S
O545       Zr565   2.398       .  S
O545        H582   0.963       .  S
O546       Zr549   2.393       .  S
O546       Zr565   2.399       .  S
Zr547       O572   2.440       .  S
Zr547       O566   2.423       .  S
Zr547       O574   2.425       .  S
Zr547       O562   2.446       .  S
Zr547       O553   2.395       .  S
Zr547       O554   2.402       .  S
Zr547       O555   2.374       .  S
Zr547       O556   2.383       .  S
Zr548       O567   2.433       .  S
Zr548       O560   2.437       .  S
Zr548       O561   2.421       .  S
Zr548       O554   2.396       .  S
Zr548       O555   2.388       .  S
Zr549       O551   2.434       .  S
Zr549       O573   2.440       .  S
Zr549       O575   2.430       .  S
Zr549       O553   2.389       .  S
Zr549       O556   2.384       .  S
Zr550       O576   2.435       .  S
Zr550       O577   2.433       .  S
Zr550       O552   2.436       .  S
Zr550       O553   2.384       .  S
Zr550       O554   2.391       .  S
O551        H588   0.990       .  S
O552        H583   0.990       .  S
O552        H597   0.990       .  S
O554        H580   0.965       .  S
O555       Zr565   2.377       .  S
O556       Zr565   2.379       .  S
O556        H581   0.967       .  S
C557       C1055   1.433       .  S
C558        C948   1.474       .  S
C559        C943   1.467       .  S
O560        H596   0.990       .  S
O561        C563   1.280       .  A
O562        C563   1.284       .  A
C563       C1028   1.436       .  S
O564       Zr565   2.437       .  S
O564        H593   0.990       .  S
Zr565       O568   2.438       .  S
Zr565       O569   2.437       .  S
Zr565       O570   2.427       .  S
O566        C571   1.282       .  A
O567        H584   0.990       .  S
O567        H599   0.990       .  S
O568        H585   0.990       .  S
O569        H589   0.990       .  S
O569        H598   0.990       .  S
O570        C571   1.282       .  A
C571        C951   1.471       .  S
O572        H591   0.990       .  S
O572        H595   0.990       .  S
O573        H587   0.990       .  S
O573        H594   0.990       .  S
O574        C578   1.282       .  A
O575        C578   1.283       .  A
O576        H586   0.990       .  S
O577        H590   0.990       .  S
C578       C1032   1.432       .  S
Zr601       O602   2.438       .  S
Zr601       O603   2.423       .  S
Zr601       O604   2.444       .  S
Zr601       O607   2.434       .  S
Zr601       O609   2.382       .  S
Zr601       O610   2.383       .  S
Zr601       O611   2.402       .  S
Zr601       O612   2.396       .  S
O602        H658   0.990       .  S
O602        H666   0.990       .  S
O603        C623   1.281       .  A
O604        C625   1.285       .  A
O605       Zr615   2.401       .  S
O605        C624   1.277       .  A
O606       Zr614   2.422       .  S
O606        C625   1.281       .  A
O607        C624   1.284       .  A
O608       Zr616   2.444       .  S
O608        C623   1.287       .  A
O609       Zr614   2.389       .  S
O609       Zr616   2.374       .  S
O610       Zr615   2.386       .  S
O610       Zr616   2.371       .  S
O610        H645   0.963       .  S
O611       Zr614   2.402       .  S
O611       Zr631   2.387       .  S
O611        H648   0.966       .  S
O612       Zr615   2.391       .  S
O612       Zr631   2.391       .  S
Zr613       O638   2.441   1_554  S
Zr613       O632   2.450   1_554  S
Zr613       O640   2.438   1_554  S
Zr613       O628   2.434   1_554  S
Zr613       O619   2.406       .  S
Zr613       O620   2.412       .  S
Zr613       O621   2.379       .  S
Zr613       O622   2.381       .  S
Zr614       O633   2.434       .  S
Zr614       O626   2.434       .  S
Zr614       O627   2.429       .  S
Zr614       O620   2.392       .  S
Zr614       O621   2.388       .  S
Zr615       O617   2.436       .  S
Zr615       O639   2.436       .  S
Zr615       O641   2.414       .  S
Zr615       O619   2.383       .  S
Zr615       O622   2.382       .  S
Zr616       O642   2.437       .  S
Zr616       O643   2.436       .  S
Zr616       O618   2.435       .  S
Zr616       O619   2.404       .  S
Zr616       O620   2.405       .  S
O617        H654   0.990       .  S
O618        H649   0.990       .  S
O618        H663   0.990       .  S
O620        H646   0.965       .  S
O621       Zr631   2.377       .  S
O622       Zr631   2.372       .  S
O622        H647   0.964       .  S
C623        C940   1.480       .  S
C624       C1033   1.423       .  S
C625       C1045   1.436       .  S
O626        H662   0.990       .  S
O627        C629   1.284   1_554  A
O628        C629   1.284       .  A
C629        C931   1.467       .  S
O630       Zr631   2.441       .  S
O630        H659   0.991       .  S
Zr631       O634   2.438       .  S
Zr631       O635   2.441       .  S
Zr631       O636   2.417       .  S
O632        C637   1.286       .  A
O633        H650   0.990       .  S
O633        H665   0.990       .  S
O634        H651   0.990       .  S
O635        H655   0.990       .  S
O635        H664   0.990       .  S
O636        C637   1.280   1_554  A
C637       C1047   1.438       .  S
O638        H657   0.990       .  S
O638        H661   0.990       .  S
O639        H653   0.990       .  S
O639        H660   0.990       .  S
O640        C644   1.284       .  A
O641        C644   1.281   1_554  A
O642        H652   0.990       .  S
O643        H656   0.990       .  S
C644        C935   1.462       .  S
Zr667       O668   2.441       .  S
Zr667       O669   2.449       .  S
Zr667       O670   2.439       .  S
Zr667       O673   2.423       .  S
Zr667       O675   2.382       .  S
Zr667       O676   2.381       .  S
Zr667       O677   2.407       .  S
Zr667       O678   2.409       .  S
O668        H724   0.991       .  S
O668        H732   0.990       .  S
O669        C689   1.285       .  A
O670        C691   1.283       .  A
O671       Zr681   2.432       .  S
O671        C690   1.284       .  A
O672       Zr680   2.408       .  S
O672        C691   1.282       .  A
O673        C690   1.282       .  A
O674       Zr682   2.419       .  S
O674        C689   1.280       .  A
O675       Zr680   2.397       .  S
O675       Zr682   2.380       .  S
O676       Zr681   2.391       .  S
O676       Zr682   2.369       .  S
O676        H711   0.964       .  S
O677       Zr680   2.398       .  S
O677       Zr697   2.388       .  S
O677        H714   0.968       .  S
O678       Zr681   2.385       .  S
O678       Zr697   2.397       .  S
Zr679       O704   2.442       .  S
Zr679       O698   2.430       .  S
Zr679       O706   2.441       .  S
Zr679       O694   2.467       .  S
Zr679       O685   2.404       .  S
Zr679       O686   2.407       .  S
Zr679       O687   2.375       .  S
Zr679       O688   2.389       .  S
Zr680       O699   2.435       .  S
Zr680       O692   2.438       .  S
Zr680       O693   2.421       .  S
Zr680       O686   2.398       .  S
Zr680       O687   2.390       .  S
Zr681       O683   2.434       .  S
Zr681       O705   2.439       .  S
Zr681       O707   2.420       .  S
Zr681       O685   2.398       .  S
Zr681       O688   2.391       .  S
Zr682       O708   2.433       .  S
Zr682       O709   2.434       .  S
Zr682       O684   2.437       .  S
Zr682       O685   2.393       .  S
Zr682       O686   2.391       .  S
O683        H720   0.990       .  S
O684        H715   0.991       .  S
O684        H729   0.990       .  S
O686        H712   0.963       .  S
O687       Zr697   2.382       .  S
O688       Zr697   2.379       .  S
O688        H713   0.966       .  S
C689       C1057   1.441       .  S
C690        C920   1.463       .  S
C691        C927   1.472       .  S
O692        H728   0.990       .  S
O693        C695   1.280       .  A
O694        C695   1.288       .  A
C695       C1035   1.444       .  S
O696       Zr697   2.437       .  S
O696        H725   0.990       .  S
Zr697       O700   2.437       .  S
Zr697       O701   2.442       .  S
Zr697       O702   2.409       .  S
O698        C703   1.282       .  A
O699        H716   0.990       .  S
O699        H731   0.990       .  S
O700        H717   0.990       .  S
O701        H721   0.990       .  S
O701        H730   0.989       .  S
O702        C703   1.278       .  A
C703        C924   1.465       .  S
O704        H723   0.990       .  S
O704        H727   0.991       .  S
O705        H719   0.990       .  S
O705        H726   0.990       .  S
O706        C710   1.285       .  A
O707        C710   1.281       .  A
O708        H718   0.990       .  S
O709        H722   0.990       .  S
C710       C1040   1.434       .  S
O733       Zr745   2.452       .  S
O733        C735   1.290       .  A
O734       Zr771   2.419   1_545  S
O734        C735   1.285       .  A
C735        C939   1.480       .  S
O736       Zr748   2.451       .  S
O736        C738   1.290       .  A
O737       Zr772   2.417   1_445  S
O737        C738   1.284       .  A
C738        C968   1.479       .  S
O739       Zr748   2.428       .  S
O739        C741   1.287       .  A
O740       Zr771   2.451   1_445  S
O740        C741   1.291       .  A
C741       C1012   1.485       .  S
O742       Zr745   2.414       .  S
O742        C744   1.285       .  A
O743       Zr772   2.431   1_545  S
O743        C744   1.287       .  A
C744        C923   1.472       .  S
Zr745       O746   2.435       .  S
Zr745       O747   2.439       .  S
Zr745       O751   2.358       .  S
Zr745       O752   2.377       .  S
Zr745       O775   2.378   1_545  S
Zr745       O777   2.361   1_545  S
O746        H789   0.990       .  S
O747        H788   0.990       .  S
O747        H792   0.990       .  S
Zr748       O749   2.437       .  S
Zr748       O750   2.434       .  S
Zr748       O752   2.362   1_455  S
Zr748       O751   2.375   1_455  S
Zr748       O776   2.374   1_545  S
Zr748       O778   2.366   1_545  S
O749        H790   0.990       .  S
O749        H793   0.990       .  S
O750        H783   0.990       .  S
O751       Zr771   2.389   1_545  S
O752       Zr772   2.396   1_545  S
O752        H779   0.966   1_655  S
O753       Zr765   2.430       .  S
O753        C755   1.287       .  A
O754       Zr772   2.427       .  S
O754        C755   1.285       .  A
C755        C952   1.478       .  S
O756       Zr768   2.429       .  S
O756        C758   1.287       .  A
O757       Zr771   2.437   1_455  S
O757        C758   1.288       .  A
C758       C1000   1.483       .  S
O759       Zr768   2.407       .  S
O759        C761   1.281       .  A
O760       Zr772   2.459   1_455  S
O760        C761   1.293       .  A
C761        C983   1.473       .  S
O762       Zr765   2.388       .  S
O762        C764   1.278       .  A
O763       Zr771   2.463       .  S
O763        C764   1.295       .  A
C764        C964   1.467       .  S
Zr765       O766   2.437       .  S
Zr765       O767   2.437       .  S
Zr765       O773   2.359       .  S
Zr765       O774   2.379       .  S
Zr765       O777   2.376       .  S
Zr765       O775   2.350       .  S
O766        H786   0.990       .  S
O766        H791   0.990       .  S
O767        H787   0.990       .  S
Zr768       O769   2.436       .  S
Zr768       O770   2.434       .  S
Zr768       O774   2.358   1_455  S
Zr768       O773   2.373   1_455  S
Zr768       O778   2.375       .  S
Zr768       O776   2.359       .  S
O769        H785   0.990       .  S
O770        H784   0.990       .  S
O770        H794   0.990       .  S
Zr771       O774   2.380       .  S
Zr771       O776   2.386   1_655  S
Zr771       O777   2.390       .  S
Zr772       O773   2.380       .  S
Zr772       O775   2.386       .  S
Zr772       O778   2.381   1_655  S
O773        H781   0.965       .  S
O776        H780   0.966       .  S
O777        H782   0.965       .  S
O795       Zr807   2.424       .  S
O795        C797   1.285       .  A
O796       Zr833   2.440   1_565  S
O796        C797   1.288       .  A
C797        C996   1.471       .  S
O798       Zr810   2.425       .  S
O798        C800   1.286       .  A
O799       Zr834   2.444   1_545  S
O799        C800   1.289       .  A
C800        C932   1.474       .  S
O801       Zr810   2.431       .  S
O801        C803   1.285       .  A
O802       Zr833   2.423       .  S
O802        C803   1.285       .  A
C803       C1007   1.459       .  S
O804       Zr807   2.433       .  S
O804        C806   1.287       .  A
O805       Zr834   2.420       .  S
O805        C806   1.285       .  A
C806        C959   1.465       .  S
Zr807       O808   2.432       .  S
Zr807       O809   2.436       .  S
Zr807       O813   2.368       .  S
Zr807       O814   2.370       .  S
Zr807       O837   2.355       .  S
Zr807       O839   2.364       .  S
O808        H851   0.990       .  S
O809        H850   0.990       .  S
O809        H854   0.990       .  S
Zr810       O811   2.438       .  S
Zr810       O812   2.433       .  S
Zr810       O814   2.368   1_545  S
Zr810       O813   2.364   1_545  S
Zr810       O838   2.365       .  S
Zr810       O840   2.369       .  S
O811        H852   0.990       .  S
O811        H855   0.990   1_556  S
O812        H845   0.990       .  S
O813       Zr833   2.383   1_565  S
O814       Zr834   2.389       .  S
O814        H841   0.963       .  S
O815       Zr827   2.437       .  S
O815        C817   1.288       .  A
O816       Zr834   2.435       .  S
O816        C817   1.287       .  A
C817        C944   1.483       .  S
O818       Zr830   2.428       .  S
O818        C820   1.287       .  A
O819       Zr833   2.443       .  S
O819        C820   1.289       .  A
C820        C971   1.485       .  S
O821       Zr830   2.426       .  S
O821        C823   1.286       .  A
O822       Zr834   2.437   1_545  S
O822        C823   1.288       .  A
C823        C919   1.472       .  S
O824       Zr827   2.429       .  S
O824        C826   1.286       .  A
O825       Zr833   2.426   1_565  S
O825        C826   1.285       .  A
C826        C988   1.464       .  S
Zr827       O828   2.433       .  S
Zr827       O829   2.435       .  S
Zr827       O835   2.366   1_565  S
Zr827       O836   2.368   1_565  S
Zr827       O839   2.368       .  S
Zr827       O837   2.361       .  S
O828        H848   0.990       .  S
O828        H853   0.990       .  S
O829        H849   0.990       .  S
Zr830       O831   2.433       .  S
Zr830       O832   2.436       .  S
Zr830       O836   2.372       .  S
Zr830       O835   2.376       .  S
Zr830       O840   2.365       .  S
Zr830       O838   2.367       .  S
O831        H847   0.990       .  S
O832        H846   0.990       .  S
O832        H856   0.990       .  S
Zr833       O836   2.385       .  S
Zr833       O838   2.388       .  S
Zr833       O839   2.395   1_545  S
Zr834       O835   2.392   1_565  S
Zr834       O837   2.383       .  S
Zr834       O840   2.384   1_565  S
O835        H843   0.968       .  S
O838        H842   0.966       .  S
O839        H844   0.965       .  S
O857       Zr869   2.410       .  S
O857        C859   1.283       .  A
O858       Zr895   2.447   1_455  S
O858        C859   1.289       .  A
C859       C1004   1.471       .  S
O860       Zr872   2.402       .  S
O860        C862   1.282       .  A
O861       Zr896   2.448   1_655  S
O861        C862   1.290       .  A
C862        C956   1.471       .  S
O863       Zr872   2.415       .  S
O863        C865   1.285       .  A
O864       Zr895   2.445       .  S
O864        C865   1.289       .  A
C865        C936   1.482       .  S
O866       Zr869   2.415       .  S
O866        C868   1.282       .  A
O867       Zr896   2.424       .  S
O867        C868   1.285       .  A
C868        C991   1.455       .  S
Zr869       O870   2.432       .  S
Zr869       O871   2.435       .  S
Zr869       O875   2.371   1_455  S
Zr869       O876   2.360   1_455  S
Zr869       O899   2.361       .  S
Zr869       O901   2.365       .  S
O870        H913   0.990       .  S
O871        H912   0.990       .  S
O871        H916   0.990       .  S
Zr872       O873   2.437       .  S
Zr872       O874   2.435       .  S
Zr872       O876   2.367       .  S
Zr872       O875   2.369       .  S
Zr872       O900   2.353       .  S
Zr872       O902   2.363       .  S
O873        H914   0.990       .  S
O873        H917   0.990       .  S
O874        H907   0.990       .  S
O875       Zr895   2.382       .  S
O876       Zr896   2.386   1_655  S
O876        H903   0.964       .  S
O877       Zr889   2.424       .  S
O877        C879   1.286       .  A
O878       Zr896   2.431       .  S
O878        C879   1.287       .  A
C879        C980   1.478       .  S
O880       Zr892   2.420       .  S
O880        C882   1.284       .  A
O881       Zr895   2.417       .  S
O881        C882   1.285       .  A
C882        C928   1.452       .  S
O883       Zr892   2.433       .  S
O883        C885   1.286       .  A
O884       Zr896   2.437   1_655  S
O884        C885   1.287       .  A
C885        C947   1.470       .  S
O886       Zr889   2.437       .  S
O886        C888   1.287       .  A
O887       Zr895   2.430   1_455  S
O887        C888   1.286       .  A
C888        C976   1.472       .  S
Zr889       O890   2.435       .  S
Zr889       O891   2.434       .  S
Zr889       O897   2.377       .  S
Zr889       O898   2.364       .  S
Zr889       O901   2.361       .  S
Zr889       O899   2.368       .  S
O890        H910   0.990       .  S
O890        H915   0.991       .  S
O891        H911   0.990       .  S
Zr892       O893   2.434       .  S
Zr892       O894   2.437       .  S
Zr892       O898   2.368   1_655  S
Zr892       O897   2.364   1_655  S
Zr892       O902   2.359       .  S
Zr892       O900   2.371       .  S
O893        H909   0.990       .  S
O894        H908   0.990       .  S
O894        H918   0.990       .  S
Zr895       O898   2.392   1_655  S
Zr895       O900   2.390       .  S
Zr895       O901   2.389   1_655  S
Zr896       O897   2.394       .  S
Zr896       O899   2.387       .  S
Zr896       O902   2.381   1_455  S
O897        H905   0.966       .  S
O900        H904   0.967       .  S
O901        H906   0.966       .  S
C919        C920   1.341       .  D
C919        H921   1.087       .  S
C920        H922   1.087       .  S
C923        C924   1.347       .  D
C923        H925   1.087       .  S
C924        H926   1.087       .  S
C927        C928   1.341       .  D
C927        H929   1.087       .  S
C928        H930   1.087       .  S
C931        C932   1.344       .  D
C931        H933   1.087       .  S
C932        H934   1.087       .  S
C935        C936   1.347       .  D
C935        H937   1.086       .  S
C936        H938   1.087       .  S
C939        C940   1.345       .  D
C939        H941   1.087       .  S
C940        H942   1.087       .  S
C943        C944   1.346       .  D
C943        H945   1.086       .  S
C944        H946   1.087       .  S
C947        C948   1.344       .  D
C947        H949   1.086       .  S
C948        H950   1.087       .  S
C951        C952   1.346       .  D
C951        H953   1.087       .  S
C952        H954   1.087       .  S
C955        C956   1.344       .  D
C955        H957   1.087       .  S
C956        H958   1.086       .  S
C959        C960   1.340       .  D
C959        H961   1.087       .  S
C960        H962   1.087       .  S
C963        C964   1.333       .  D
C963        H965   1.087       .  S
C964        H966   1.088       .  S
C967        C968   1.345       .  D
C967        H969   1.087       .  S
C968        H970   1.087       .  S
C971        C972   1.347       .  D
C971        H973   1.087       .  S
C972        H974   1.086       .  S
C975        C976   1.342       .  D
C975        H977   1.087       .  S
C976        H978   1.087       .  S
C979        C980   1.344       .  D
C979        H981   1.086       .  S
C980        H982   1.087       .  S
C983        C984   1.339       .  D
C983        H985   1.088       .  S
C984        H986   1.087       .  S
C987        C988   1.342       .  D
C987        H989   1.087       .  S
C988        H990   1.087       .  S
C991        C992   1.341       .  D
C991        H993   1.087       .  S
C992        H994   1.087       .  S
C995        C996   1.343       .  D
C995        H997   1.087       .  S
C996        H998   1.087       .  S
C999       C1000   1.349       .  D
C999       H1001   1.087       .  S
C1000      H1002   1.086       .  S
C1003      C1004   1.345       .  D
C1003      H1005   1.088       .  S
C1004      H1006   1.086       .  S
C1007      C1008   1.343       .  D
C1007      H1009   1.086       .  S
C1008      H1010   1.087       .  S
C1011      C1012   1.352       .  D
C1011      H1013   1.087       .  S
C1012      H1014   1.086       .  S
C1015      C1016   1.204       .  T
C1017      C1018   1.203       .  T
C1019      C1020   1.210       .  T
C1021      C1022   1.210       .  T
C1023      C1024   1.212       .  T
C1025      C1026   1.210       .  T
C1027      C1028   1.207       .  T
C1029      C1030   1.204       .  T
C1031      C1032   1.205       .  T
C1033      C1034   1.200       .  T
C1035      C1036   1.212       .  T
C1037      C1038   1.215       .  T
C1039      C1040   1.206       .  T
C1041      C1042   1.205       .  T
C1043      C1044   1.204       .  T
C1045      C1046   1.207       .  T
C1047      C1048   1.208       .  T
C1049      C1050   1.211       .  T
C1051      C1052   1.208       .  T
C1053      C1054   1.211       .  T
C1055      C1056   1.206       .  T
C1057      C1058   1.210       .  T
C1059      C1060   1.212       .  T
C1061      C1062   1.210       .  T
