geometry optimzed in LAMMPS
_audit_creation_date              2020-11-30 
_audit_creation_method            'lammps2cif' 
_symmetry_space_group_name_H-M    'P1' 
_symmetry_Int_Tables_number       1 
_symmetry_cell_setting            triclinic 
loop_ 
_symmetry_equiv_pos_as_xyz 
  x,y,z 
_cell_length_a                    65.4623351 
_cell_length_b                    65.49140860210956 
_cell_length_c                    36.61121246904522 
_cell_angle_alpha                 90.00250837389882 
_cell_angle_beta                  89.95850194841772 
_cell_angle_gamma                 120.93772804220055 
loop_ 
_atom_site_label 
_atom_site_type_symbol 
_atom_site_fract_x 
_atom_site_fract_y 
_atom_site_fract_z 
_atom_site_charge 
O1          O  0.77227920  0.26016055  0.18246045    -0.70800
O2          O  0.72676078  0.21537128  0.25756466    -0.71800
O3          O  0.72812863  0.21676802  0.18016172    -0.60400
O4          O  0.77105114  0.25896312  0.25981271    -0.68800
O5          O  0.75206760  0.27899882  0.25983212    -0.68300
O6          O  0.70904444  0.23671269  0.18011171    -0.59600
O7          O  0.70769620  0.23532646  0.25769372    -0.72100
O8          O  0.75330568  0.28021318  0.18230502    -0.70900
Cu9        Cu  0.75021119  0.23710745  0.22001735     1.04600
Cu10       Cu  0.72983899  0.25851897  0.22001166     1.04300
C11         C  0.76984937  0.27708397  0.17049842     0.95400
C12         C  0.71015525  0.21836170  0.26946138     0.94600
C13         C  0.71200721  0.22024355  0.16752013     0.86700
C14         C  0.76830636  0.27560632  0.27223862     0.93000
N15         N  0.39862224  0.84579040  0.42906896    -0.25100
N16         N  0.39256843  0.82586085  0.44679329    -0.33000
C17         C  0.39165732  0.80974424  0.42310525     0.03200
C18         C  0.39733251  0.82003438  0.38895074     0.09200
C19         C  0.40171799  0.84286690  0.39351111    -0.03900
H20         H  0.38824417  0.79227168  0.43055316     0.09900
H21         H  0.40774699  0.85665415  0.37295760     0.11100
Cu22       Cu  0.38858892  0.82219415  0.50282235     0.44200
Cu23       Cu  0.40468035  0.87662919  0.45486200     0.42000
Cu24       Cu  0.39968255  0.87468891  0.05712354     0.43900
N25         N  0.39083397  0.82486460  0.05925491    -0.32500
N26         N  0.39290685  0.84265235  0.07924665    -0.26800
C27         C  0.39290728  0.83741491  0.11479044    -0.02900
C28         C  0.39060515  0.81528208  0.11697611     0.09400
C29         C  0.38941160  0.80784302  0.08143583     0.03200
H30         H  0.39606480  0.84951504  0.13711887     0.10800
H31         H  0.38932371  0.79208978  0.07227889     0.09900
N32         N  0.41078691  0.90611004  0.02878035    -0.34000
N33         N  0.41071953  0.90502028  0.48775025    -0.26100
C34         C  0.42001722  0.92785818  0.47754983    -0.01400
C35         C  0.42168898  0.94103631  0.50819910     0.07200
C36         C  0.41509992  0.92696598  0.04270782     0.05300
H37         H  0.42522726  0.93429848  0.44991469     0.10400
H38         H  0.41264780  0.92984672  0.07107818     0.09300
N39         N  0.27007688  0.91102565  0.06015798    -0.25100
N40         N  0.25046422  0.89784518  0.04096031    -0.33000
C41         C  0.23235127  0.88447506  0.06378226     0.03200
C42         C  0.24096525  0.88947656  0.09894936     0.09200
C43         C  0.26492048  0.90629398  0.09589985    -0.03900
H44         H  0.21461018  0.87103607  0.05522688     0.09900
H45         H  0.27787251  0.91354241  0.11773827     0.11100
Cu46       Cu  0.24744251  0.89659880  0.48485384     0.44200
Cu47       Cu  0.30326754  0.93237843  0.03623943     0.42000
Cu48       Cu  0.30282684  0.92095226  0.43780065     0.43900
N49         N  0.24990789  0.89374372  0.42915133    -0.32500
N50         N  0.27044456  0.90236092  0.41186095    -0.26800
C51         C  0.26631234  0.89615259  0.37647659    -0.02900
C52         C  0.24201653  0.88305280  0.37156287     0.09400
C53         C  0.23205973  0.88173921  0.40529245     0.03200
H54         H  0.27995391  0.90016763  0.35628383     0.10800
H55         H  0.21333919  0.87198381  0.41232879     0.09900
N56         N  0.33310356  0.94197451  0.46782059    -0.34000
N57         N  0.33398980  0.94969324  0.00466648    -0.26100
C58         C  0.35620213  0.96543536  0.01614014    -0.01400
C59         C  0.37036356  0.96749827  0.48270852     0.07200
C60         C  0.35531775  0.95456111  0.45454059     0.05300
H61         H  0.36088229  0.97131227  0.04410764     0.10400
H62         H  0.36008473  0.95462306  0.42621469     0.09300
N63         N  0.50318579  0.21416777  0.43322552    -0.25100
N64         N  0.51137818  0.23469392  0.45038987    -0.33000
C65         C  0.51451597  0.25146859  0.42615901     0.03200
C66         C  0.50797616  0.24094841  0.39224687     0.09200
C67         C  0.50084026  0.21732746  0.39747493    -0.03900
H68         H  0.52038348  0.26975211  0.43297804     0.09900
H69         H  0.49390772  0.20337470  0.37711799     0.11100
Cu70       Cu  0.51560159  0.23861693  0.50628560     0.44200
Cu71       Cu  0.49434410  0.18276257  0.45997533     0.42000
Cu72       Cu  0.51036626  0.18921709  0.04718028     0.43900
N73         N  0.52684247  0.24085353  0.05872426    -0.32500
N74         N  0.51779672  0.21993877  0.07502107    -0.26800
C75         C  0.51374507  0.22233471  0.11040584    -0.02900
C76         C  0.52065901  0.24587158  0.11626591     0.09400
C77         C  0.52880825  0.25709385  0.08309237     0.03200
H78         H  0.50574717  0.20792467  0.12999670     0.10800
H79         H  0.53493024  0.27550064  0.07675938     0.09900
N80         N  0.50546773  0.16181423  0.01277152    -0.34000
N81         N  0.48578460  0.15399338  0.49370932    -0.26100
C82         C  0.48096206  0.13224881  0.48340340    -0.01400
C83         C  0.47583995  0.11831000  0.51438321     0.07200
C84         C  0.49742750  0.13907340  0.02230345     0.05300
H85         H  0.48091904  0.12696443  0.45539396     0.10400
H86         H  0.49238160  0.13218982  0.04976066     0.09300
N87         N  0.64758528  0.15798568  0.03943691    -0.25100
N88         N  0.66839586  0.16845635  0.02261421    -0.33000
C89         C  0.68547778  0.18280639  0.04625939     0.03200
C90         C  0.67477792  0.18114254  0.07944949     0.09200
C91         C  0.65078039  0.16532042  0.07439154    -0.03900
H92         H  0.70416828  0.19391276  0.03956290     0.09900
H93         H  0.63668568  0.15980988  0.09432223     0.11100
Cu94       Cu  0.67070588  0.16892495  0.46976126     0.44200
Cu95       Cu  0.61625010  0.13501262  0.01280010     0.42000
Cu96       Cu  0.61243336  0.13709828  0.42615430     0.43900
N97         N  0.66537752  0.16880511  0.41416267    -0.32500
N98         N  0.64431635  0.15761060  0.39796066    -0.26800
C99         C  0.64732666  0.16310598  0.36211720    -0.02900
C100        C  0.67136791  0.17834365  0.35586997     0.09400
C101        C  0.68226636  0.18160822  0.38925779     0.03200
H102        H  0.63303598  0.15715067  0.34246541     0.10800
H103        H  0.70097881  0.19321170  0.39536088     0.09900
N104        N  0.58404953  0.12024780  0.46262597    -0.34000
N105        N  0.58713042  0.11219604  0.98149946    -0.26100
C106        C  0.56483409  0.09865083  0.99406437    -0.01400
C107        C  0.54829299  0.09870635  0.48759729     0.07200
C108        C  0.56088146  0.10506687  0.45499623     0.05300
H109        H  0.55973564  0.09822860  0.02228704     0.10400
H110        H  0.55377853  0.09932403  0.42780058     0.09300
C111        C  0.45079421  0.00791695  0.48683689     0.04500
C112        C  0.43543920  0.01578751  0.49911828     0.04400
C113        C  0.44412704  0.04019799  0.50237884    -0.16100
C114        C  0.46751462  0.05710983  0.49199709     0.04500
C115        C  0.48272043  0.04927752  0.47908236     0.04400
C116        C  0.47410321  0.02481022  0.47624415    -0.16100
H117        H  0.48588368  0.01886845  0.46669846     0.06500
H118        H  0.43203686  0.04603078  0.51070017     0.06500
O119        O  0.20350252  0.54065658  0.24366743    -0.70800
O120        O  0.24017577  0.52885593  0.31964159    -0.71800
O121        O  0.23904893  0.52819482  0.24246275    -0.60400
O122        O  0.20444590  0.54106339  0.32096693    -0.68800
O123        O  0.17642072  0.50266600  0.32159723    -0.68300
O124        O  0.21098162  0.48981071  0.24339001    -0.59600
O125        O  0.21219987  0.49045703  0.32065353    -0.72100
O126        O  0.17538932  0.50230223  0.24418701    -0.70900
Cu127      Cu  0.22277099  0.53604464  0.28163955     1.04600
Cu128      Cu  0.19273889  0.49494013  0.28248297     1.04300
C129        C  0.18377709  0.52341134  0.23200307     0.95400
C130        C  0.23197463  0.50785129  0.33201832     0.94600
C131        C  0.23043370  0.50696567  0.23077264     0.86700
C132        C  0.18502999  0.52381325  0.33359075     0.93000
O133        O  0.20666841  0.83089295  0.19341604    -0.70800
O134        O  0.16556731  0.78325320  0.26944752    -0.71800
O135        O  0.16438625  0.78552456  0.19210166    -0.60400
O136        O  0.20766521  0.82866371  0.27059952    -0.68800
O137        O  0.18591461  0.84580091  0.27436553    -0.68300
O138        O  0.14278819  0.80280367  0.19623279    -0.59600
O139        O  0.14389358  0.80044183  0.27345156    -0.72100
O140        O  0.18501974  0.84811658  0.19728420    -0.70900
Cu141      Cu  0.18684128  0.80645973  0.23122531     1.04600
Cu142      Cu  0.16363275  0.82488249  0.23545795     1.04300
C143        C  0.20229488  0.84693954  0.18348076     0.95400
C144        C  0.14841598  0.78451420  0.28353831     0.94600
C145        C  0.14686044  0.78751916  0.18184788     0.86700
C146        C  0.20344429  0.84391764  0.28479763     0.93000
N147        N  0.13223570  0.54490811  0.10779761    -0.25100
N148        N  0.15005287  0.54566896  0.08953901    -0.33000
C149        C  0.16363790  0.54180947  0.11261728     0.03200
C150        C  0.15390670  0.53844488  0.14698822     0.09200
C151        C  0.13403411  0.54050154  0.14324008    -0.03900
H152        H  0.17902676  0.54080796  0.10468308     0.09900
H153        H  0.12150990  0.53835326  0.16436142     0.11100
Cu154      Cu  0.15400101  0.54926777  0.03372427     0.44200
Cu155      Cu  0.10560796  0.54813425  0.08244520     0.42000
Cu156      Cu  0.10132128  0.53912090  0.48322204     0.43900
N157        N  0.14246908  0.53119158  0.47865704    -0.32500
N158        N  0.12794253  0.53542849  0.45946604    -0.26800
C159        C  0.13331786  0.53631811  0.42379494    -0.02900
C160        C  0.15211594  0.53250988  0.42083979     0.09400
C161        C  0.15749419  0.52929217  0.45590860     0.03200
H162        H  0.12402332  0.53915619  0.40179557     0.10800
H163        H  0.17103192  0.52547024  0.46429801     0.09900
N164        N  0.07645596  0.54218624  0.51392495    -0.34000
N165        N  0.08032593  0.54901614  0.04915162    -0.26100
C166        C  0.06120099  0.55001474  0.05992136    -0.01400
C167        C  0.04823989  0.54870536  0.02928912     0.07200
C168        C  0.05850456  0.54444657  0.50098386     0.05300
H169        H  0.05666655  0.55088010  0.08807994     0.10400
H170        H  0.05488949  0.54497884  0.47228967     0.09300
N171        N  0.09309990  0.71507547  0.41181799    -0.25100
N172        N  0.10132805  0.73581348  0.42834426    -0.33000
C173        C  0.11311446  0.75343592  0.40403135     0.03200
C174        C  0.11218279  0.74329045  0.37066861     0.09200
C175        C  0.09943579  0.71897847  0.37633623    -0.03900
H176        H  0.12212116  0.77222752  0.41041667     0.09900
H177        H  0.09543501  0.70519622  0.35644738     0.11100
Cu178      Cu  0.09439779  0.73941157  0.98309864     0.44200
Cu179      Cu  0.07441871  0.68275019  0.43917764     0.42000
Cu180      Cu  0.06673236  0.68506742  0.03490879     0.43900
N181        N  0.09545118  0.73837706  0.03933821    -0.32500
N182        N  0.08551654  0.71840332  0.05843365    -0.26800
C183        C  0.09171183  0.72358405  0.09370980    -0.02900
C184        C  0.10614638  0.74793615  0.09666024     0.09400
C185        C  0.10824597  0.75683560  0.06188139     0.03200
H186        H  0.08710507  0.71052803  0.11511239     0.10800
H187        H  0.11931864  0.77515546  0.05322302     0.09900
N188        N  0.05092697  0.65397320  0.00482255    -0.34000
N189        N  0.05548477  0.65326744  0.47283783    -0.26100
C190        C  0.04310589  0.63033873  0.46234716    -0.01400
C191        C  0.03038594  0.61610018  0.98866250     0.07200
C192        C  0.03766636  0.63170387  0.01786020     0.05300
H193        H  0.04175663  0.62429741  0.43445795     0.10400
H194        H  0.03353707  0.62733277  0.04643621     0.09300
N195        N  0.83312610  0.34280092  0.39657626    -0.25100
N196        N  0.82123397  0.32269961  0.41522151    -0.33000
C197        C  0.80647080  0.30512254  0.39256870     0.03200
C198        C  0.80921925  0.31460991  0.35810797     0.09200
C199        C  0.82617454  0.33849692  0.36138631    -0.03900
H200        H  0.79418706  0.28694654  0.40084774     0.09900
H201        H  0.83254955  0.35184742  0.34009678     0.11100
Cu202      Cu  0.83011280  0.31852933  0.97443660     0.44200
Cu203      Cu  0.85693541  0.37529631  0.42071999     0.42000
Cu204      Cu  0.85612937  0.37504778  0.01871851     0.43900
N205        N  0.82536638  0.32233937  0.02917012    -0.32500
N206        N  0.83456964  0.34322349  0.04555104    -0.26800
C207        C  0.82679280  0.33984575  0.08030924    -0.02900
C208        C  0.81204628  0.31568767  0.08570260     0.09400
C209        C  0.81145379  0.30507814  0.05291293     0.03200
H210        H  0.83103622  0.35392805  0.09974185     0.10800
H211        H  0.80107224  0.28631336  0.04637658     0.09900
N212        N  0.87852365  0.40429362  0.98700818    -0.34000
N213        N  0.87710725  0.40530076  0.45296894    -0.26100
C214        C  0.89286052  0.42757765  0.44170874    -0.01400
C215        C  0.90521406  0.44090512  0.96989901     0.07200
C216        C  0.89155939  0.42687716  0.99873721     0.05300
H217        H  0.89755442  0.43280148  0.41348444     0.10400
H218        H  0.89163944  0.43243420  0.02658346     0.09300
N219        N  0.78900240  0.50900598  0.07415097    -0.25100
N220        N  0.76963807  0.50520963  0.05677272    -0.33000
C221        C  0.75508902  0.50718230  0.08051851     0.03200
C222        C  0.76578236  0.51238774  0.11435878     0.09200
C223        C  0.78726198  0.51350982  0.10955339    -0.03900
H224        H  0.73835687  0.50572908  0.07335680     0.09900
H225        H  0.80088282  0.51791489  0.12991995     0.11100
Cu226      Cu  0.76451356  0.49972622  0.00108802     0.44200
Cu227      Cu  0.81727450  0.50904990  0.04824430     0.42000
Cu228      Cu  0.81359958  0.50543578  0.45018942     0.43900
N229        N  0.76690071  0.50324861  0.44414897    -0.32500
N230        N  0.78567270  0.50634507  0.42577757    -0.26800
C231        C  0.78382992  0.51147042  0.39081691    -0.02900
C232        C  0.76286627  0.51147660  0.38738453     0.09400
C233        C  0.75256045  0.50629588  0.42150877     0.03200
H234        H  0.79711451  0.51565419  0.36992090     0.10800
H235        H  0.73635888  0.50567780  0.42965049     0.09900
N236        N  0.84043302  0.50633372  0.48105045    -0.34000
N237        N  0.84223774  0.50738371  0.01529007    -0.26100
C238        C  0.86338093  0.51046920  0.02555632    -0.01400
C239        C  0.87433471  0.50782172  0.99501174     0.07200
C240        C  0.86036807  0.50784717  0.46816702     0.05300
H241        H  0.87016871  0.51435368  0.05318073     0.10400
H242        H  0.86463217  0.50833290  0.43949712     0.09300
C243        C  0.98125415  0.55297058  0.01396689     0.04500
C244        C  0.98599755  0.53524476  0.00235483     0.04400
C245        C  0.96697942  0.51225986  0.99496665    -0.16100
C246        C  0.94326057  0.50624869  0.00038794     0.04500
C247        C  0.93864799  0.52386158  0.01331939     0.04400
C248        C  0.95769897  0.54688837  0.02034827    -0.16100
H249        H  0.95407946  0.56051523  0.02929118     0.06500
H250        H  0.97079380  0.49862772  0.98692676     0.06500
O251        O  0.52670748  0.33891391  0.21615680    -0.70800
O252        O  0.52633541  0.29579052  0.29397976    -0.71800
O253        O  0.53065496  0.29773685  0.21676087    -0.60400
O254        O  0.52230175  0.33681266  0.29314160    -0.68800
O255        O  0.48296628  0.31396301  0.28803732    -0.68300
O256        O  0.49132935  0.27484192  0.21166818    -0.56000
O257        O  0.48699818  0.27285084  0.28903136    -0.72100
O258        O  0.48737770  0.31609473  0.21087862    -0.70900
Cu259      Cu  0.52787914  0.31810095  0.25516647     1.04600
Cu260      Cu  0.48576690  0.29360331  0.24969220     1.04300
C261        C  0.50713582  0.33433470  0.20145862     0.95400
C262        C  0.50662988  0.27770670  0.30389589     0.94600
C263        C  0.51228675  0.28020699  0.20220951     0.86700
C264        C  0.50135134  0.33148338  0.30255613     0.93000
O265        O  0.68963938  0.53912683  0.28716716    -0.70800
O266        O  0.71834777  0.51668760  0.21183271    -0.71800
O267        O  0.71721017  0.51711152  0.28924839    -0.60400
O268        O  0.69070335  0.53859130  0.20979532    -0.68800
O269        O  0.72382804  0.57424816  0.21002767    -0.68300
O270        O  0.75033994  0.55276001  0.28952279    -0.59600
O271        O  0.75142936  0.55234635  0.21216727    -0.72100
O272        O  0.72278051  0.57474493  0.28732377    -0.70900
Cu273      Cu  0.70278904  0.52660746  0.24951661     1.04600
Cu274      Cu  0.73825917  0.56478086  0.24978477     1.04300
C275        C  0.70179048  0.56043241  0.29909518     0.95400
C276        C  0.73934017  0.53109014  0.20007259     0.94600
C277        C  0.73789758  0.53159417  0.30183541     0.86700
C278        C  0.70317296  0.55972313  0.19737735     0.93000
O279        O  0.45277937  0.77218866  0.28851578    -0.70800
O280        O  0.42939416  0.79865595  0.21159318    -0.71800
O281        O  0.43244676  0.80131130  0.28878904    -0.60400
O282        O  0.44965726  0.76941320  0.21138907    -0.68800
O283        O  0.41346764  0.73720611  0.21538011    -0.68300
O284        O  0.39624016  0.76912614  0.29272835    -0.59600
O285        O  0.39316544  0.76648957  0.21540708    -0.72100
O286        O  0.41660322  0.73996521  0.29262332    -0.70900
Cu287      Cu  0.44234101  0.78652693  0.24990943     1.04600
Cu288      Cu  0.40357986  0.75204892  0.25416586     1.04300
C289        C  0.43834465  0.75198070  0.30266695     0.95400
C290        C  0.40767850  0.78676469  0.20145749     0.94600
C291        C  0.41167669  0.79016347  0.30294347     0.86700
C292        C  0.43426044  0.74832421  0.20131882     0.93000
N293        N  0.28920195  0.49644756  0.10728635    -0.25100
N294        N  0.27140384  0.49464278  0.08768237    -0.33000
C295        C  0.25489764  0.49400714  0.11019450     0.03200
C296        C  0.26276796  0.49547908  0.14549795     0.09200
C297        C  0.28456140  0.49708521  0.14291982    -0.03900
H298        H  0.23906917  0.49389831  0.10139075     0.09900
H299        H  0.29669916  0.49981790  0.16499073     0.11100
Cu300      Cu  0.27200187  0.49698376  0.03150173     0.44200
Cu301      Cu  0.32009912  0.50131384  0.08412071     0.42000
Cu302      Cu  0.32198443  0.50738053  0.48644914     0.43900
N303        N  0.27077649  0.49312354  0.47537342    -0.32500
N304        N  0.29148318  0.50099328  0.45883643    -0.26800
C305        C  0.28906143  0.50451998  0.42322008    -0.02900
C306        C  0.26573489  0.49847104  0.41752608     0.09400
C307        C  0.25468481  0.49141879  0.45097508     0.03200
H308        H  0.30331747  0.51153519  0.40332627     0.10800
H309        H  0.23650376  0.48619626  0.45744473     0.09900
N310        N  0.34847930  0.51041215  0.52134699    -0.34000
N311        N  0.35070853  0.51066803  0.05519849    -0.26100
C312        C  0.37045704  0.51200513  0.06856685    -0.01400
C313        C  0.38735879  0.52028994  0.04130278     0.07200
C314        C  0.37123525  0.51787141  0.51269227     0.05300
H315        H  0.37247610  0.50766124  0.09633418     0.10400
H316        H  0.37880434  0.52349563  0.48568834     0.09300
N317        N  0.46859666  0.70792724  0.42649326    -0.25100
N318        N  0.46548765  0.72316524  0.44583597    -0.33000
C319        C  0.46042757  0.73611190  0.42324911     0.03200
C320        C  0.46038073  0.72864067  0.38809631     0.09200
C321        C  0.46555689  0.71075616  0.39088465    -0.03900
H322        H  0.45602052  0.74917747  0.43197176     0.09900
H323        H  0.46602996  0.69991574  0.36898401     0.11100
Cu324      Cu  0.46502361  0.72364014  0.50201756     0.44200
Cu325      Cu  0.47386925  0.68228239  0.45028583     0.42000
Cu326      Cu  0.46376999  0.67525343  0.04894160     0.43900
N327        N  0.45748468  0.71716720  0.05714947    -0.32500
N328        N  0.45774421  0.69976660  0.07500667    -0.26800
C329        C  0.45356648  0.70125115  0.11065551    -0.02900
C330        C  0.45058674  0.72051996  0.11494960     0.09400
C331        C  0.45314269  0.73019085  0.08069185     0.03200
H332        H  0.45262236  0.68916631  0.13164785     0.10800
H333        H  0.45173662  0.74541520  0.07328584     0.09900
N334        N  0.47207525  0.65459198  0.01644708    -0.34000
N335        N  0.47404293  0.65576390  0.48096905    -0.26100
C336        C  0.47835238  0.63894944  0.46876309    -0.01400
C337        C  0.47508897  0.62384175  0.49740013     0.07200
C338        C  0.47296920  0.63550303  0.02743424     0.05300
H339        H  0.48302675  0.63755076  0.44090349     0.10400
H340        H  0.46922271  0.62849075  0.05495655     0.09300
N341        N  0.49406741  0.39192555  0.42796194    -0.25100
N342        N  0.49633388  0.37600311  0.44689349    -0.33000
C343        C  0.49722091  0.36054389  0.42383702     0.03200
C344        C  0.49540824  0.36703354  0.38879139     0.09200
C345        C  0.49345883  0.38698130  0.39211236    -0.03900
H346        H  0.49945001  0.34593161  0.43203071     0.09900
H347        H  0.49204159  0.39729956  0.37024841     0.11100
Cu348      Cu  0.49935893  0.37635042  0.50294099     0.44200
Cu349      Cu  0.49249111  0.41970895  0.45247429     0.42000
Cu350      Cu  0.50328613  0.42631009  0.05376610     0.43900
N351        N  0.51817591  0.39005085  0.06077323    -0.32500
N352        N  0.50929823  0.40135051  0.07852356    -0.26800
C353        C  0.50479974  0.39350163  0.11328772    -0.02900
C354        C  0.51117978  0.37652702  0.11714333     0.09400
C355        C  0.51956384  0.37475033  0.08354386     0.03200
H356        H  0.49716158  0.39944480  0.13390345     0.10800
H357        H  0.52578676  0.36290010  0.07593242     0.09900
N358        N  0.50073039  0.45114142  0.02191551    -0.34000
N359        N  0.49051133  0.44481873  0.48458588    -0.26100
C360        C  0.48753711  0.46258920  0.47290386    -0.01400
C361        C  0.48667238  0.47482901  0.50302146     0.07200
C362        C  0.49437892  0.46667500  0.03314096     0.05300
H363        H  0.48607565  0.46630274  0.44454254     0.10400
H364        H  0.48948410  0.46797935  0.06088949     0.09300
N365        N  0.65349902  0.57854706  0.06950738    -0.25100
N366        N  0.67371623  0.58477670  0.05259459    -0.33000
C367        C  0.68904449  0.58444015  0.07659597     0.03200
C368        C  0.67782666  0.57779908  0.11004416     0.09200
C369        C  0.65534213  0.57410186  0.10478725    -0.03900
H370        H  0.70657391  0.58773078  0.06979785     0.09900
H371        H  0.64109986  0.56779474  0.12463397     0.11100
Cu372      Cu  0.67817015  0.59044844  0.99702080     0.44200
Cu373      Cu  0.62412263  0.57489354  0.04300151     0.42000
Cu374      Cu  0.62432533  0.58228824  0.45020363     0.43900
N375        N  0.67115734  0.58471987  0.44281288    -0.32500
N376        N  0.65319758  0.58368411  0.42465581    -0.26800
C377        C  0.65585184  0.58100731  0.38884287    -0.02900
C378        C  0.67649262  0.58043378  0.38456050     0.09400
C379        C  0.68574417  0.58276949  0.41913540     0.03200
H380        H  0.64302745  0.57829382  0.36791556     0.10800
H381        H  0.70113634  0.58171608  0.42680120     0.09900
N382        N  0.59545701  0.57587995  0.48190552    -0.34000
N383        N  0.59771921  0.57436318  0.01187298    -0.26100
C384        C  0.57634605  0.56948511  0.02401136    -0.01400
C385        C  0.56410635  0.57167770  0.99504111     0.07200
C386        C  0.57518489  0.57413590  0.47007379     0.05300
H387        H  0.57039775  0.56500328  0.05200360     0.10400
H388        H  0.57168232  0.57659778  0.44203814     0.09300
C389        C  0.46885534  0.56366372  0.52031981     0.04500
C390        C  0.44897812  0.54074803  0.52675950     0.04400
C391        C  0.45236650  0.52142145  0.53167217    -0.16100
C392        C  0.47510345  0.52449076  0.52949964     0.04500
C393        C  0.49500062  0.54732762  0.52291764     0.04400
C394        C  0.49169049  0.56671722  0.51830306    -0.16100
H395        H  0.50707896  0.58443012  0.51484864     0.06500
H396        H  0.43712183  0.50364883  0.53546965     0.06500
C397        C  0.52419261  0.55495663  0.02137721    -0.14300
C398        C  0.53999341  0.56802167  0.99534417    -0.29400
H399        H  0.52867740  0.54588149  0.04182858     0.14800
H400        H  0.53108936  0.57217407  0.47603652     0.15300
C401        C  0.48446747  0.49609209  0.50245168    -0.14300
C402        C  0.47736248  0.50321337  0.53167197    -0.29400
H403        H  0.48822278  0.50590071  0.47695318     0.14800
H404        H  0.47389926  0.49415187  0.05214984     0.15300
C405        C  0.47786025  0.60288733  0.49633067    -0.14300
C406        C  0.46608824  0.58475255  0.51979609    -0.29400
H407        H  0.48905119  0.60197260  0.47524981     0.14800
H408        H  0.45792069  0.58791821  0.03875667     0.15300
C409        C  0.42923895  0.53966680  0.02259074    -0.14300
C410        C  0.41155172  0.52430696  0.04443446    -0.29400
H411        H  0.42077595  0.54621559  0.50433840     0.14800
H412        H  0.41511002  0.51524357  0.06613778     0.15300
C413        C  0.45329728  0.73602598  0.35609913    -0.11100
C414        C  0.44661419  0.74289600  0.33090016    -0.12700
C415        C  0.44514184  0.72876740  0.14770965    -0.11100
C416        C  0.44027879  0.73715451  0.17313932    -0.12700
C417        C  0.68657139  0.57249904  0.14222133    -0.11100
C418        C  0.69402217  0.56707679  0.16812353    -0.12700
C419        C  0.68455465  0.57434058  0.35221153    -0.11100
C420        C  0.69199130  0.56825758  0.32695169    -0.12700
C421        C  0.49848124  0.34508628  0.33058438    -0.11100
C422        C  0.49668962  0.35574839  0.35599656    -0.12700
C423        C  0.50750627  0.34982205  0.17350738    -0.11100
C424        C  0.50874590  0.36251738  0.14875355    -0.12700
C425        C  0.75459457  0.51804250  0.35594247    -0.11100
C426        C  0.74718283  0.52405619  0.33067807    -0.12700
C427        C  0.75722855  0.51802809  0.14667379    -0.11100
C428        C  0.74929826  0.52353119  0.17201991    -0.12700
C429        C  0.91423733  0.51938562  0.01860037    -0.14300
C430        C  0.89789617  0.51011306  0.99190571    -0.29400
H431        H  0.91063844  0.52628813  0.04318043     0.14800
H432        H  0.90293473  0.50772005  0.46885144     0.15300
C433        C  0.92343193  0.46650766  0.97060252    -0.14300
C434        C  0.92381445  0.48101319  0.99694411    -0.29400
H435        H  0.93235706  0.47491190  0.44959584     0.14800
H436        H  0.90938512  0.47426731  0.01668136     0.15300
C437        C  0.01438508  0.59003407  0.98879581    -0.14300
C438        C  0.00006775  0.57834279  0.01715946    -0.29400
H439        H  0.01417002  0.58079372  0.46760147     0.14800
H440        H  0.99981736  0.58811733  0.04094334     0.15300
C441        C  0.01042492  0.53941009  0.00013855    -0.14300
C442        C  0.02524326  0.54776839  0.02890966    -0.29400
H443        H  0.01368460  0.53313173  0.47634064     0.14800
H444        H  0.01957313  0.55242852  0.05385924     0.15300
C445        C  0.13168917  0.77266198  0.15320520    -0.11100
C446        C  0.11948944  0.76100900  0.12802058    -0.12700
C447        C  0.12365678  0.75589511  0.33773611    -0.11100
C448        C  0.13442657  0.76821736  0.31197533    -0.12700
C449        C  0.24260117  0.50234341  0.20255010    -0.11100
C450        C  0.25218831  0.49877153  0.17743251    -0.12700
C451        C  0.24500669  0.50391964  0.35976784    -0.11100
C452        C  0.25528832  0.50126726  0.38489828    -0.12700
C453        C  0.17291291  0.52807608  0.36236889    -0.11100
C454        C  0.16307520  0.53065938  0.38815978    -0.12700
C455        C  0.17120083  0.52791552  0.20416982    -0.11100
C456        C  0.16231441  0.53254604  0.17915657    -0.12700
C457        C  0.52260788  0.08265991  0.49405459    -0.14300
C458        C  0.50805481  0.06613800  0.46991353    -0.29400
H459        H  0.51627805  0.05594426  0.94397825     0.14800
H460        H  0.51522001  0.06342937  0.44483032     0.15300
C461        C  0.51771903  0.25637329  0.14877715    -0.11100
C462        C  0.51524515  0.26667075  0.17410703    -0.12700
C463        C  0.50704917  0.25216281  0.35915103    -0.11100
C464        C  0.50657237  0.26304963  0.33298287    -0.12700
C465        C  0.46915390  0.09314627  0.51684484    -0.14300
C466        C  0.47493272  0.08266720  0.49060909    -0.29400
H467        H  0.45986776  0.08322923  0.54120837     0.14800
H468        H  0.47188289  0.09032172  0.03834014     0.15300
C469        C  0.22960409  0.87054473  0.33933128    -0.11100
C470        C  0.21825845  0.85884930  0.31359977    -0.12700
C471        C  0.22836544  0.87639193  0.13093296    -0.11100
C472        C  0.21678670  0.86361513  0.15580164    -0.12700
C473        C  0.39619685  0.98374161  0.47911568    -0.14300
C474        C  0.40964238  0.99927415  0.50513192    -0.29400
H475        H  0.40439902  0.98336763  0.45348938     0.14800
H476        H  0.40129747  0.00377332  0.03657428     0.15300
C477        C  0.39968214  0.79628950  0.17345936    -0.11100
C478        C  0.39452999  0.80479014  0.14854268    -0.12700
C479        C  0.40577223  0.80126401  0.33140655    -0.11100
C480        C  0.40145802  0.81013420  0.35680742    -0.12700
C481        C  0.43074451  0.96677300  0.51112277    -0.14300
C482        C  0.44308537  0.98229117  0.48425329    -0.29400
H483        H  0.42679781  0.97467529  0.04400015     0.14800
H484        H  0.44842970  0.97637641  0.46031979     0.15300
C485        C  0.78564823  0.29241009  0.14262818    -0.11100
C486        C  0.79824876  0.30386619  0.11755142    -0.12700
C487        C  0.78353578  0.29052163  0.30099185    -0.11100
C488        C  0.79576942  0.30218398  0.32625791    -0.12700
C489        C  0.69447203  0.20279523  0.29732903    -0.11100
C490        C  0.68284608  0.19076884  0.32280994    -0.12700
C491        C  0.69739253  0.20572623  0.13806201    -0.11100
C492        C  0.68636994  0.19411287  0.11196922    -0.12700
O493        O  0.78571632  0.25527127  0.68397796    -0.70800
O494        O  0.74121401  0.20875968  0.75887270    -0.71800
O495        O  0.74192457  0.21138398  0.68145151    -0.60400
O496        O  0.78532421  0.25287764  0.76149828    -0.68800
O497        O  0.76574603  0.27228827  0.76397371    -0.68300
O498        O  0.72241365  0.23087113  0.68400919    -0.59600
O499        O  0.72170946  0.22824791  0.76123809    -0.72100
O500        O  0.76610470  0.27465274  0.68659499    -0.70900
Cu501      Cu  0.76425272  0.23138905  0.72143940     1.04600
Cu502      Cu  0.74331350  0.25219968  0.72410765     1.04300
C503        C  0.78264235  0.27205355  0.67327877     0.95400
C504        C  0.72439725  0.21116457  0.77156079     0.94600
C505        C  0.72550088  0.21480224  0.67005547     0.86700
C506        C  0.78239622  0.26913766  0.77512234     0.93000
N507        N  0.40954838  0.85287536  0.93203870    -0.25100
N508        N  0.40253086  0.83225233  0.94823153    -0.33000
C509        C  0.40286467  0.81708265  0.92387542     0.03200
C510        C  0.41036355  0.82873388  0.89086235     0.09200
C511        C  0.41451961  0.85137735  0.89679369    -0.03900
H512        H  0.39850390  0.79911989  0.93001737     0.09900
H513        H  0.42113621  0.86581948  0.87728840     0.11100
Cu514      Cu  0.39437408  0.82608862  0.00312899     0.44200
Cu515      Cu  0.41312061  0.88220565  0.95956409     0.42000
Cu516      Cu  0.39523686  0.87240197  0.55329371     0.43900
N517        N  0.38939364  0.82390330  0.55919304    -0.32500
N518        N  0.39161430  0.84221034  0.57789719    -0.26800
C519        C  0.39468307  0.83924373  0.61343690    -0.02900
C520        C  0.39430565  0.81806977  0.61699703     0.09400
C521        C  0.39097918  0.80880785  0.58223574     0.03200
H522        H  0.39860325  0.85231303  0.63455497     0.10800
H523        H  0.39133762  0.79314004  0.57392060     0.09900
N524        N  0.40647424  0.90323621  0.52328563    -0.34000
N525        N  0.41610206  0.90892556  0.99357535    -0.26100
C526        C  0.42407344  0.93166241  0.98424431    -0.01400
C527        C  0.42375295  0.94372937  0.01508607     0.07200
C528        C  0.41276011  0.92483042  0.53655259     0.05300
H529        H  0.42973389  0.93877885  0.95703176     0.10400
H530        H  0.41157412  0.92858471  0.56500785     0.09300
N531        N  0.26975537  0.90946568  0.55977218    -0.25100
N532        N  0.24966749  0.89761427  0.54108601    -0.33000
C533        C  0.23164343  0.88461311  0.56425881     0.03200
C534        C  0.24081474  0.88851931  0.59907450     0.09200
C535        C  0.26498115  0.90425459  0.59547821    -0.03900
H536        H  0.21344254  0.87232188  0.55610114     0.09900
H537        H  0.27824477  0.91057346  0.61688035     0.11100
Cu538      Cu  0.24952725  0.89522387  0.98482044     0.44200
Cu539      Cu  0.30299084  0.92999170  0.53555655     0.42000
Cu540      Cu  0.30524333  0.92348961  0.93771663     0.43900
N541        N  0.25257694  0.89078202  0.92975968    -0.32500
N542        N  0.27313107  0.90090146  0.91216157    -0.26800
C543        C  0.26912048  0.89398595  0.87696149    -0.02900
C544        C  0.24490025  0.87883994  0.87262457     0.09400
C545        C  0.23492598  0.87713598  0.90644180     0.03200
H546        H  0.28277476  0.89954449  0.85625390     0.10800
H547        H  0.21626519  0.86668112  0.91367978     0.09900
N548        N  0.33460045  0.94604425  0.96923410    -0.34000
N549        N  0.33340146  0.94613468  0.50320897    -0.26100
C550        C  0.35596897  0.96175030  0.51334898    -0.01400
C551        C  0.37142460  0.97187234  0.98643861     0.07200
C552        C  0.35714853  0.95921640  0.95731933     0.05300
H553        H  0.36139852  0.96826091  0.54089001     0.10400
H554        H  0.36275634  0.95948440  0.92942186     0.09300
N555        N  0.53137897  0.22874529  0.92671686    -0.25100
N556        N  0.53603345  0.24723559  0.94730126    -0.33000
C557        C  0.53975142  0.26544429  0.92578894     0.03200
C558        C  0.53737253  0.25805937  0.89002591     0.09200
C559        C  0.53199101  0.23472413  0.89136433    -0.03900
H560        H  0.54273407  0.28235388  0.93557777     0.09900
H561        H  0.52772844  0.22266805  0.86858358     0.11100
Cu562      Cu  0.53399065  0.24614553  0.00353713     0.44200
Cu563      Cu  0.52186361  0.19573635  0.94846677     0.42000
Cu564      Cu  0.49202044  0.18462745  0.55925390     0.43900
N565        N  0.51376742  0.23773450  0.56257922    -0.32500
N566        N  0.50463635  0.21797061  0.58213749    -0.26800
C567        C  0.50499251  0.22344981  0.61765892    -0.02900
C568        C  0.51484017  0.24776204  0.62020908     0.09400
C569        C  0.52016775  0.25629995  0.58498853     0.03200
H570        H  0.49828176  0.21066798  0.63977067     0.10800
H571        H  0.52762502  0.27454601  0.57615424     0.09900
N572        N  0.48406985  0.15441834  0.52967067    -0.34000
N573        N  0.51016193  0.16432746  0.97733881    -0.26100
C574        C  0.50540780  0.14330432  0.96351637    -0.01400
C575        C  0.49711935  0.12673037  0.99139000     0.07200
C576        C  0.47778799  0.13285384  0.54313476     0.05300
H577        H  0.50753465  0.14023368  0.93509214     0.10400
H578        H  0.47529516  0.12825244  0.57183677     0.09300
N579        N  0.65260656  0.16131712  0.54665745    -0.25100
N580        N  0.67193174  0.17043514  0.52609364    -0.33000
C581        C  0.69127757  0.18152753  0.54759560     0.03200
C582        C  0.68361417  0.17908626  0.58328525     0.09200
C583        C  0.65907362  0.16628893  0.58188637    -0.03900
H584        H  0.70946685  0.19129841  0.53784310     0.09900
H585        H  0.64683177  0.16153962  0.60455802     0.11100
Cu586      Cu  0.67190712  0.16376155  0.96778753     0.44200
Cu587      Cu  0.61860658  0.14343672  0.52517499     0.42000
Cu588      Cu  0.61827763  0.12637184  0.91431447     0.43900
N589        N  0.67134231  0.16106232  0.91165476    -0.32500
N590        N  0.65201202  0.14804705  0.89173121    -0.26800
C591        C  0.65789888  0.15273975  0.85614411    -0.02900
C592        C  0.68199563  0.16932751  0.85402381     0.09400
C593        C  0.68992527  0.17422886  0.88951512     0.03200
H594        H  0.64540257  0.14545357  0.83371536     0.10800
H595        H  0.70761945  0.18735665  0.89872093     0.09900
N596        N  0.58752333  0.10845310  0.94606527    -0.34000
N597        N  0.58648304  0.12349382  0.49838909    -0.26100
C598        C  0.56504707  0.11081251  0.51435897    -0.01400
C599        C  0.55032875  0.08563227  0.96526761     0.07200
C600        C  0.56529411  0.09213399  0.93525703     0.05300
H601        H  0.56196425  0.11008009  0.54350051     0.10400
H602        H  0.56033487  0.08574729  0.90753819     0.09300
C603        C  0.45173445  0.01077482  0.99725221     0.04500
C604        C  0.43629725  0.01863519  0.00909691     0.04400
C605        C  0.44557037  0.04290032  0.01577784    -0.16100
C606        C  0.46956678  0.05968076  0.00890069     0.04500
C607        C  0.48491026  0.05192917  0.99632996     0.04400
C608        C  0.47573377  0.02755811  0.99034596    -0.16100
H609        H  0.48759829  0.02145164  0.98199288     0.06500
H610        H  0.43374041  0.04892118  0.02475228     0.06500
O611        O  0.19891222  0.53610491  0.74130159    -0.70800
O612        O  0.24304656  0.53393466  0.81507604    -0.71800
O613        O  0.23610972  0.52608481  0.73848397    -0.60400
O614        O  0.20578140  0.54392951  0.81744766    -0.68800
O615        O  0.17955767  0.50559194  0.82724146    -0.68300
O616        O  0.20986619  0.48776445  0.74831025    -0.59600
O617        O  0.21679066  0.49561664  0.82480885    -0.72100
O618        O  0.17266515  0.49778066  0.75108876    -0.70900
Cu619      Cu  0.22191357  0.53637039  0.77771398     1.04600
Cu620      Cu  0.19382049  0.49533205  0.78822370     1.04300
C621        C  0.17894505  0.51731883  0.73464734     0.95400
C622        C  0.23666355  0.51444441  0.83177682     0.94600
C623        C  0.22760233  0.50415770  0.73084188     0.86700
C624        C  0.18788444  0.52751706  0.83460937     0.93000
O625        O  0.20395117  0.82986662  0.69300037    -0.70800
O626        O  0.16100939  0.78336325  0.76887898    -0.71800
O627        O  0.15924415  0.78689718  0.69192205    -0.60400
O628        O  0.20579487  0.82631294  0.76994202    -0.68800
O629        O  0.18752446  0.84683690  0.77631581    -0.68300
O630        O  0.14082497  0.80729181  0.69804464    -0.59600
O631        O  0.14270907  0.80386024  0.77518652    -0.72100
O632        O  0.18565344  0.85037047  0.69928484    -0.70900
Cu633      Cu  0.18313789  0.80588998  0.73068784     1.04600
Cu634      Cu  0.16353063  0.82782704  0.73744220     1.04300
C635        C  0.20148049  0.84733390  0.68422521     0.95400
C636        C  0.14520271  0.78641070  0.78400004     0.94600
C637        C  0.14282996  0.79090062  0.68270763     0.86700
C638        C  0.20387273  0.84269192  0.78543456     0.93000
N639        N  0.12128513  0.52797943  0.60869026    -0.25100
N640        N  0.13687850  0.52479794  0.59046364    -0.33000
C641        C  0.14991191  0.52057166  0.61413472     0.03200
C642        C  0.14212849  0.52109716  0.64883619     0.09200
C643        C  0.12401270  0.52586105  0.64469625    -0.03900
H644        H  0.16436418  0.51790554  0.60660811     0.09900
H645        H  0.11394444  0.52812265  0.66610959     0.11100
Cu646      Cu  0.14086861  0.52746057  0.53458359     0.44200
Cu647      Cu  0.09780407  0.53574931  0.58308752     0.42000
Cu648      Cu  0.10565338  0.54555360  0.98247916     0.43900
N649        N  0.15226219  0.54740935  0.97762249    -0.32500
N650        N  0.13424084  0.54550518  0.95851360    -0.26800
C651        C  0.13758516  0.54272813  0.92302078    -0.02900
C652        C  0.15873267  0.54299463  0.92007077     0.09400
C653        C  0.16757531  0.54591434  0.95498999     0.03200
H654        H  0.12522363  0.54000401  0.90131329     0.10800
H655        H  0.18344798  0.54602430  0.96355555     0.09900
N656        N  0.08009353  0.54741657  0.01310947    -0.34000
N657        N  0.07551642  0.54155470  0.55003571    -0.26100
C658        C  0.05707442  0.54365991  0.56099415    -0.01400
C659        C  0.04572684  0.54538975  0.53039037     0.07200
C660        C  0.06076442  0.54712759  0.00006881     0.05300
H661        H  0.05172902  0.54298496  0.58915765     0.10400
H662        H  0.05620136  0.54574018  0.97142857     0.09300
N663        N  0.08763218  0.71600211  0.90972217    -0.25100
N664        N  0.09630083  0.73647123  0.92726403    -0.33000
C665        C  0.10809298  0.75448116  0.90355930     0.03200
C666        C  0.10670840  0.74487733  0.86955394     0.09200
C667        C  0.09369651  0.72048527  0.87420547    -0.03900
H668        H  0.11776209  0.77314241  0.91088456     0.09900
H669        H  0.08965472  0.70703183  0.85369836     0.11100
Cu670      Cu  0.09769273  0.73955076  0.48351695     0.44200
Cu671      Cu  0.06959217  0.68315609  0.93576284     0.42000
Cu672      Cu  0.06791439  0.68608127  0.53777222     0.43900
N673        N  0.09568140  0.73965994  0.53974346    -0.32500
N674        N  0.08510942  0.72012755  0.55989390    -0.26800
C675        C  0.08919986  0.72630477  0.59537526    -0.02900
C676        C  0.10284203  0.75082666  0.59733842     0.09400
C677        C  0.10673389  0.75875054  0.56172719     0.03200
H678        H  0.08377486  0.71384482  0.61784821     0.10800
H679        H  0.11795291  0.77689328  0.55237027     0.09900
N680        N  0.05274378  0.65444391  0.50843823    -0.34000
N681        N  0.05230313  0.65316541  0.96886197    -0.26100
C682        C  0.04007351  0.63028382  0.95810060    -0.01400
C683        C  0.03184035  0.61642338  0.49260083     0.07200
C684        C  0.03838305  0.63228710  0.52143586     0.05300
H685        H  0.03779679  0.62444027  0.92996917     0.10400
H686        H  0.03291828  0.62816918  0.54966876     0.09300
N687        N  0.84513137  0.33854945  0.89848658    -0.25100
N688        N  0.83217511  0.31910037  0.91819536    -0.33000
C689        C  0.81860264  0.30076766  0.89586554     0.03200
C690        C  0.82322841  0.30903700  0.86048074     0.09200
C691        C  0.84006034  0.33302637  0.86289670    -0.03900
H692        H  0.80537176  0.28306649  0.90491001     0.09900
H693        H  0.84716145  0.34574018  0.84071260     0.11100
Cu694      Cu  0.82367846  0.32003074  0.47103079     0.44200
Cu695      Cu  0.86663119  0.37211605  0.92143608     0.42000
Cu696      Cu  0.85613966  0.37481582  0.52046839     0.43900
N697        N  0.82522207  0.32174704  0.52732769    -0.32500
N698        N  0.83681450  0.34192715  0.54576148    -0.26800
C699        C  0.83308940  0.33715851  0.58172860    -0.02900
C700        C  0.81853948  0.31284256  0.58577386     0.09400
C701        C  0.81379917  0.30359057  0.55092508     0.03200
H702        H  0.83989432  0.35043477  0.60313091     0.10800
H703        H  0.80225498  0.28515921  0.54318193     0.09900
N704        N  0.87594699  0.40513051  0.48905864    -0.34000
N705        N  0.88316335  0.40335707  0.95207742    -0.26100
C706        C  0.89957588  0.42541426  0.94080903    -0.01400
C707        C  0.90169448  0.44210580  0.47210175     0.07200
C708        C  0.89059810  0.42727475  0.50163656     0.05300
H709        H  0.90693452  0.42983091  0.91350750     0.10400
H710        H  0.89355286  0.43199464  0.53026251     0.09300
N711        N  0.78372181  0.50093050  0.57426295    -0.25100
N712        N  0.76515031  0.49829756  0.55581352    -0.33000
C713        C  0.74969079  0.49903491  0.57909428     0.03200
C714        C  0.75894942  0.50218997  0.61376580     0.09200
C715        C  0.78053076  0.50341580  0.60993885    -0.03900
H716        H  0.73369340  0.49884637  0.57103444     0.09900
H717        H  0.79354828  0.50721117  0.63108653     0.11100
Cu718      Cu  0.76302983  0.49780369  0.49970068     0.44200
Cu719      Cu  0.81367042  0.50385620  0.54956001     0.42000
Cu720      Cu  0.81064507  0.49865047  0.94990581     0.43900
N721        N  0.76512574  0.49908529  0.94465212    -0.32500
N722        N  0.78216014  0.49879018  0.92567613    -0.26800
C723        C  0.77911304  0.50141335  0.89000102    -0.02900
C724        C  0.75919689  0.50337671  0.88662561     0.09400
C725        C  0.75075746  0.50187794  0.92163573     0.03200
H726        H  0.79129238  0.50321698  0.86851461     0.10800
H727        H  0.73619418  0.50415317  0.93001026     0.09900
N728        N  0.83945593  0.50300575  0.97980526    -0.34000
N729        N  0.84097582  0.50649214  0.51716457    -0.26100
C730        C  0.86150685  0.50841863  0.52821169    -0.01400
C731        C  0.87429167  0.50934080  0.49745138     0.07200
C732        C  0.85863670  0.50303828  0.96662688     0.05300
H733        H  0.86660119  0.50895448  0.55645154     0.10400
H734        H  0.86118368  0.50027153  0.93824638     0.09300
C735        C  0.98070402  0.55350313  0.51621163     0.04500
C736        C  0.98496335  0.53558401  0.50369774     0.04400
C737        C  0.96568701  0.51263998  0.49682517    -0.16100
C738        C  0.94220684  0.50682990  0.50369893     0.04500
C739        C  0.93801461  0.52458221  0.51716239     0.04400
C740        C  0.95728389  0.54758906  0.52368288    -0.16100
H741        H  0.95391672  0.56129904  0.53308926     0.06500
H742        H  0.96911331  0.49884265  0.48814578     0.06500
O743        O  0.54241499  0.35089535  0.71246114    -0.70800
O744        O  0.55084107  0.31249262  0.78988473    -0.71800
O745        O  0.54315282  0.30808064  0.71329168    -0.60400
O746        O  0.55008222  0.35548753  0.78912997    -0.68800
O747        O  0.51092150  0.33481639  0.79815826    -0.68300
O748        O  0.50400013  0.28752781  0.72245449    -0.56000
O749        O  0.51167894  0.29192824  0.79890466    -0.72100
O750        O  0.50326455  0.33027967  0.72167603    -0.70900
Cu751      Cu  0.54802399  0.33248925  0.75089901     1.04600
Cu752      Cu  0.50609667  0.31043432  0.76067083     1.04300
C753        C  0.52149371  0.34639284  0.70472535     0.95400
C754        C  0.53252925  0.29613465  0.80639918     0.94600
C755        C  0.52248246  0.29050452  0.70586321     0.86700
C756        C  0.53152891  0.35248779  0.80555076     0.93000
O757        O  0.69072694  0.53765692  0.78858702    -0.70800
O758        O  0.71379680  0.51076041  0.71152669    -0.71800
O759        O  0.71478031  0.51198339  0.78893203    -0.60400
O760        O  0.68961051  0.53631518  0.71121341    -0.68800
O761        O  0.72428752  0.57049270  0.70942936    -0.68300
O762        O  0.74953229  0.54609375  0.78745971    -0.59600
O763        O  0.74850817  0.54492850  0.71000766    -0.72100
O764        O  0.72545590  0.57179945  0.78692398    -0.70900
Cu765      Cu  0.70100779  0.52298136  0.75012136     1.04600
Cu766      Cu  0.73818862  0.55954080  0.74839303     1.04300
C767        C  0.70448881  0.55890597  0.79981308     0.95400
C768        C  0.73478260  0.52370286  0.69870354     0.94600
C769        C  0.73603930  0.52524326  0.80045820     0.86700
C770        C  0.70297122  0.55713132  0.69809501     0.93000
O771        O  0.46177837  0.77838566  0.78690973    -0.70800
O772        O  0.43794877  0.80494391  0.71028040    -0.71800
O773        O  0.44310000  0.80901433  0.78748123    -0.60400
O774        O  0.45675176  0.77431893  0.71000955    -0.68800
O775        O  0.42016227  0.74300532  0.71627574    -0.68300
O776        O  0.40652712  0.77768801  0.79379429    -0.59600
O777        O  0.40139067  0.77361324  0.71668351    -0.72100
O778        O  0.42516372  0.74709006  0.79307651    -0.70900
Cu779      Cu  0.45118709  0.79279546  0.74840742     1.04600
Cu780      Cu  0.41201757  0.75926341  0.75516025     1.04300
C781        C  0.44712803  0.75855146  0.80194884     0.95400
C782        C  0.41595654  0.79339285  0.70145141     0.94600
C783        C  0.42273905  0.79866987  0.80299200     0.86700
C784        C  0.44064906  0.75321261  0.70118178     0.93000
N785        N  0.28259368  0.48861449  0.60693800    -0.25100
N786        N  0.26466208  0.48620862  0.58702333    -0.33000
C787        C  0.24828036  0.48622743  0.60912770     0.03200
C788        C  0.25637568  0.48871034  0.64453197     0.09200
C789        C  0.27815511  0.49025053  0.64234163    -0.03900
H790        H  0.23243684  0.48594140  0.59989586     0.09900
H791        H  0.29049914  0.49377322  0.66445146     0.11100
Cu792      Cu  0.26526952  0.48703313  0.53073378     0.44200
Cu793      Cu  0.31371905  0.49362779  0.58424281     0.42000
Cu794      Cu  0.32837188  0.51696105  0.98706444     0.43900
N795        N  0.27767393  0.50454640  0.97646129    -0.32500
N796        N  0.29835992  0.51228349  0.95994404    -0.26800
C797        C  0.29613479  0.51626853  0.92446691    -0.02900
C798        C  0.27297447  0.51073874  0.91880866     0.09400
C799        C  0.26177192  0.50341385  0.95215655     0.03200
H800        H  0.31031734  0.52282765  0.90449130     0.10800
H801        H  0.24350611  0.49795019  0.95847399     0.09900
N802        N  0.35423960  0.51739399  0.02056229    -0.34000
N803        N  0.34504858  0.50438842  0.55628646    -0.26100
C804        C  0.36535976  0.50753733  0.57062160    -0.01400
C805        C  0.38249468  0.51627662  0.54365182     0.07200
C806        C  0.37654779  0.52352725  0.01114996     0.05300
H807        H  0.36754246  0.50398479  0.59876607     0.10400
H808        H  0.38411816  0.52947261  0.98421920     0.09300
N809        N  0.47151392  0.71006386  0.92649059    -0.25100
N810        N  0.46624337  0.72383766  0.94571432    -0.33000
C811        C  0.46241433  0.73757683  0.92293634     0.03200
C812        C  0.46546530  0.73220894  0.88777237     0.09200
C813        C  0.47113361  0.71466793  0.89072672    -0.03900
H814        H  0.45698550  0.74992456  0.93136801     0.09900
H815        H  0.47394973  0.70538947  0.86866376     0.11100
Cu816      Cu  0.46242663  0.72219143  0.00162608     0.44200
Cu817      Cu  0.47686816  0.68448563  0.95039764     0.42000
Cu818      Cu  0.46194327  0.67401049  0.54881815     0.43900
N819        N  0.46054736  0.71881505  0.55760932    -0.32500
N820        N  0.45888599  0.70038989  0.57520126    -0.26800
C821        C  0.45502067  0.70221263  0.61088997    -0.02900
C822        C  0.45427921  0.72276904  0.61546191     0.09400
C823        C  0.45780177  0.73283053  0.58134331     0.03200
H824        H  0.45268630  0.68945285  0.63169865     0.10800
H825        H  0.45793708  0.74891720  0.57410420     0.09900
N826        N  0.46861354  0.65214723  0.51612347    -0.34000
N827        N  0.47773437  0.65843347  0.98138064    -0.26100
C828        C  0.48271506  0.64206128  0.96932317    -0.01400
C829        C  0.47964597  0.62702937  0.99795367     0.07200
C830        C  0.46897433  0.63274339  0.52702594     0.05300
H831        H  0.48758414  0.64082270  0.94151641     0.10400
H832        H  0.46543861  0.62590673  0.55465174     0.09300
N833        N  0.52725952  0.41365307  0.93133824    -0.25100
N834        N  0.53077580  0.39851283  0.95016208    -0.33000
C835        C  0.53502718  0.38524932  0.92695776     0.03200
C836        C  0.53420370  0.39246901  0.89194053     0.09200
C837        C  0.52916079  0.41042033  0.89545909    -0.03900
H838        H  0.53734605  0.37066212  0.93495989     0.09900
H839        H  0.52601950  0.41964995  0.87369569     0.11100
Cu840      Cu  0.52667608  0.39447191  0.00599857     0.44200
Cu841      Cu  0.51765923  0.43594871  0.95598545     0.42000
Cu842      Cu  0.49776307  0.42285687  0.55214644     0.43900
N843        N  0.50421460  0.38087720  0.55861136    -0.32500
N844        N  0.50383617  0.39808671  0.57688768    -0.26800
C845        C  0.50784539  0.39630871  0.61245561    -0.02900
C846        C  0.51085180  0.37706955  0.61636267     0.09400
C847        C  0.50844586  0.36764774  0.58191749     0.03200
H848        H  0.50842107  0.40805654  0.63373542     0.10800
H849        H  0.50964419  0.35233320  0.57429518     0.09900
N850        N  0.49184054  0.44553753  0.52066884    -0.34000
N851        N  0.50645358  0.45487661  0.98687195    -0.26100
C852        C  0.50407676  0.47294708  0.97499547    -0.01400
C853        C  0.49633366  0.48086651  0.00372473     0.07200
C854        C  0.48947067  0.46357172  0.53288557     0.05300
H855        H  0.50801008  0.48001180  0.94750225     0.10400
H856        H  0.49031766  0.46841621  0.56132843     0.09300
N857        N  0.65098208  0.57653655  0.57371788    -0.25100
N858        N  0.67025908  0.58115256  0.55522214    -0.33000
C859        C  0.68609661  0.58085118  0.57820705     0.03200
C860        C  0.67633146  0.57591672  0.61274577     0.09200
C861        C  0.65406493  0.57319396  0.60910263    -0.03900
H862        H  0.70297628  0.58298428  0.57003853     0.09900
H863        H  0.64072716  0.56818158  0.63019310     0.11100
Cu864      Cu  0.67326935  0.58506598  0.49913338     0.44200
Cu865      Cu  0.62085875  0.57317973  0.54904829     0.42000
Cu866      Cu  0.62872251  0.58611454  0.94525255     0.43900
N867        N  0.67612852  0.58903891  0.94077957    -0.32500
N868        N  0.65812256  0.58727446  0.92172427    -0.26800
C869        C  0.66088818  0.58343010  0.88644703    -0.02900
C870        C  0.68160408  0.58286409  0.88347191     0.09400
C871        C  0.69080168  0.58639598  0.91824469     0.03200
H872        H  0.64803189  0.57982184  0.86511182     0.10800
H873        H  0.70612752  0.58552984  0.92697518     0.09900
N874        N  0.59953378  0.57940847  0.97663021    -0.34000
N875        N  0.59376493  0.57160743  0.51743232    -0.26100
C876        C  0.57221148  0.56670626  0.52903126    -0.01400
C877        C  0.55989888  0.56816652  0.49938691     0.07200
C878        C  0.57932649  0.57812316  0.96546170     0.05300
H879        H  0.56616100  0.56274575  0.55705030     0.10400
H880        H  0.57580069  0.58117148  0.93774597     0.09300
C881        C  0.47356331  0.56690351  0.01983095     0.04500
C882        C  0.45368214  0.54385388  0.02512547     0.04400
C883        C  0.45710406  0.52450036  0.02947416    -0.16100
C884        C  0.47990352  0.52768117  0.02737028     0.04500
C885        C  0.49975067  0.55070583  0.02141215     0.04400
C886        C  0.49640192  0.57009014  0.01787673    -0.16100
H887        H  0.51177503  0.58788019  0.01505957     0.06500
H888        H  0.44186733  0.50666447  0.03268233     0.06500
C889        C  0.51938516  0.55128243  0.52374301    -0.14300
C890        C  0.53577962  0.56457642  0.49858144    -0.29400
H891        H  0.52346236  0.54197973  0.54437267     0.14800
H892        H  0.53480444  0.57538499  0.97308667     0.15300
C893        C  0.49301418  0.50144314  0.00267733    -0.14300
C894        C  0.48226490  0.50641178  0.02951065    -0.29400
H895        H  0.49955563  0.51289670  0.97876514     0.14800
H896        H  0.47166176  0.49260616  0.55647012     0.15300
C897        C  0.48265063  0.60625644  0.99680869    -0.14300
C898        C  0.47077658  0.58795034  0.01992518    -0.29400
H899        H  0.49397654  0.60553630  0.97576725     0.14800
H900        H  0.45338850  0.58495660  0.53869656     0.15300
C901        C  0.42446631  0.53647250  0.52471021    -0.14300
C902        C  0.40710476  0.52148359  0.54740010    -0.29400
H903        H  0.42597201  0.55014391  0.00302226     0.14800
H904        H  0.41111993  0.51318917  0.56974192     0.15300
C905        C  0.46074305  0.74121869  0.85520652    -0.11100
C906        C  0.45526025  0.74914231  0.82990185    -0.12700
C907        C  0.44962261  0.73172805  0.64817957    -0.11100
C908        C  0.44555264  0.74095231  0.67334026    -0.12700
C909        C  0.68591855  0.57089069  0.64443438    -0.11100
C910        C  0.69391470  0.56534504  0.66962096    -0.12700
C911        C  0.68958138  0.57553091  0.85241289    -0.11100
C912        C  0.69635526  0.56831811  0.82777409    -0.12700
C913        C  0.53380556  0.36881570  0.83352324    -0.11100
C914        C  0.53461218  0.38078277  0.85907191    -0.12700
C915        C  0.51828915  0.35904202  0.67561286    -0.11100
C916        C  0.51510146  0.36811010  0.64937286    -0.12700
C917        C  0.75141701  0.51008062  0.85456767    -0.11100
C918        C  0.74468176  0.51673044  0.82909529    -0.12700
C919        C  0.75022412  0.50802456  0.64556663    -0.11100
C920        C  0.74300894  0.51448183  0.67060903    -0.12700
C921        C  0.91366397  0.52021191  0.52239517    -0.14300
C922        C  0.89785299  0.51172100  0.49495770    -0.29400
H923        H  0.90967266  0.52645514  0.54735164     0.14800
H924        H  0.90238304  0.50513757  0.96612588     0.15300
C925        C  0.92036940  0.46756164  0.47280645    -0.14300
C926        C  0.92257164  0.48164358  0.50106215    -0.29400
H927        H  0.93677833  0.47352776  0.94910860     0.14800
H928        H  0.90933806  0.47470640  0.52272878     0.15300
C929        C  0.01516585  0.59040724  0.49237306    -0.14300
C930        C  0.99986298  0.57882220  0.51982874    -0.29400
H931        H  0.01290849  0.58043622  0.96377170     0.14800
H932        H  0.99929573  0.58871587  0.54321706     0.15300
C933        C  0.00915983  0.53929189  0.50086563    -0.14300
C934        C  0.02349966  0.54592537  0.53015517    -0.29400
H935        H  0.01500985  0.53262391  0.97641303     0.14800
H936        H  0.01770579  0.54981676  0.55569206     0.15300
C937        C  0.12670487  0.77686987  0.65418986    -0.11100
C938        C  0.11478258  0.76487830  0.62894720    -0.12700
C939        C  0.11887631  0.75790370  0.83727483    -0.11100
C940        C  0.13037142  0.77030748  0.81202804    -0.12700
C941        C  0.23788403  0.49787524  0.70165764    -0.11100
C942        C  0.24628865  0.49316464  0.67608776    -0.12700
C943        C  0.25159992  0.51379474  0.85982619    -0.11100
C944        C  0.26242460  0.51272099  0.88564100    -0.12700
C945        C  0.17711039  0.53375404  0.86302518    -0.11100
C946        C  0.16838570  0.53838965  0.88819579    -0.12700
C947        C  0.16370020  0.51808123  0.70737245    -0.11100
C948        C  0.15261006  0.51918112  0.68202578    -0.12700
C949        C  0.52443200  0.06846861  0.96636685    -0.14300
C950        C  0.51092170  0.06880870  0.99374903    -0.29400
H951        H  0.51563826  0.08364526  0.52053526     0.14800
H952        H  0.51894255  0.08260335  0.01444781     0.15300
C953        C  0.51758779  0.26145681  0.65234194    -0.11100
C954        C  0.51989346  0.27418426  0.67768227    -0.12700
C955        C  0.53680203  0.27094620  0.85873971    -0.11100
C956        C  0.53534634  0.28235569  0.83415970    -0.12700
C957        C  0.48975107  0.10141306  0.98778488    -0.14300
C958        C  0.47769250  0.08523070  0.01401153    -0.29400
H959        H  0.49368571  0.09575138  0.96216823     0.14800
H960        H  0.48591827  0.09320956  0.46779334     0.15300
C961        C  0.23225997  0.86702986  0.83996586    -0.11100
C962        C  0.21998451  0.85630562  0.81419976    -0.12700
C963        C  0.22814960  0.87579302  0.63122133    -0.11100
C964        C  0.21640234  0.86347628  0.65634559    -0.12700
C965        C  0.39745926  0.98788624  0.98495185    -0.14300
C966        C  0.41020644  0.00237768  0.01250482    -0.29400
H967        H  0.40643840  0.98812147  0.95983020     0.14800
H968        H  0.40146021  0.00131147  0.52958749     0.15300
C969        C  0.40754361  0.80255619  0.67343941    -0.11100
C970        C  0.40095829  0.80979647  0.64854657    -0.12700
C971        C  0.41820224  0.81051779  0.83200008    -0.11100
C972        C  0.41456234  0.81946213  0.85803389    -0.12700
C973        C  0.43122008  0.96905998  0.01877878    -0.14300
C974        C  0.44380576  0.98524460  0.99282345    -0.29400
H975        H  0.42716224  0.97316306  0.53630339     0.14800
H976        H  0.45000611  0.98012872  0.96897386     0.15300
C977        C  0.79738463  0.28773854  0.64480704    -0.11100
C978        C  0.80801272  0.29986460  0.61882545    -0.12700
C979        C  0.79793656  0.28398881  0.80368433    -0.11100
C980        C  0.81022610  0.29594502  0.82871353    -0.12700
C981        C  0.70842723  0.19464759  0.79830069    -0.11100
C982        C  0.69562018  0.18203145  0.82242850    -0.12700
C983        C  0.71052056  0.20073632  0.64055704    -0.11100
C984        C  0.69813806  0.19017601  0.61480580    -0.12700
loop_ 
_geom_bond_atom_site_label_1 
_geom_bond_atom_site_label_2 
_geom_bond_distance 
_geom_bond_site_symmetry_2 
_ccdc_geom_bond_type 
O1           Cu9   2.003       .  S
O1           C11   1.276       .  A
O2           Cu9   2.006       .  S
O2           C12   1.276       .  A
O3           Cu9   2.004       .  S
O3           C13   1.276       .  A
O4           Cu9   2.007       .  S
O4           C14   1.276       .  A
O5          Cu10   2.009       .  S
O5           C14   1.276       .  A
O6          Cu10   2.008       .  S
O6           C13   1.276       .  A
O7          Cu10   2.011       .  S
O7           C12   1.277       .  A
O8          Cu10   2.009       .  S
O8           C11   1.276       .  A
Cu9         Cu10   2.381       .  S
C11         C485   1.432       .  S
C12         C489   1.434       .  S
C13         C491   1.431       .  S
C14         C487   1.434       .  S
N15          N16   1.323       .  A
N15          C19   1.346       .  A
N15         Cu23   2.075       .  S
N16          C17   1.344       .  A
N16         Cu22   2.066       .  S
C17          C18   1.378       .  A
C17          H20   1.082       .  S
C18         C480   1.434       .  S
C18          C19   1.380       .  A
C19          H21   1.082       .  S
Cu22        N517   2.066       .  S
Cu23         N33   2.076       .  S
Cu24         N26   2.073       .  S
Cu24         N32   2.074       .  S
N25          N26   1.322       .  A
N25          C29   1.343       .  A
N25        Cu514   2.065       .  S
N26          C27   1.346       .  A
C27          C28   1.380       .  A
C27          H30   1.082       .  S
C28         C478   1.434       .  S
C28          C29   1.377       .  A
C29          H31   1.082       .  S
N32         N525   1.323   1_554  A
N32          C36   1.345       .  A
N33         N524   1.323       .  A
N33          C34   1.346       .  A
C34          C35   1.385       .  A
C34          H37   1.081       .  S
C35         C528   1.381       .  A
C35         C481   1.475       .  S
C36         C527   1.382       .  A
C36          H38   1.082       .  S
N39          N40   1.323       .  A
N39          C43   1.347       .  A
N39         Cu47   2.078       .  S
N40          C41   1.342       .  A
N40        Cu538   2.061   1_554  S
C41          C42   1.376       .  A
C41          H44   1.082       .  S
C42         C471   1.434       .  S
C42          C43   1.381       .  A
C43          H45   1.082       .  S
Cu46         N49   2.062       .  S
Cu46        N532   2.063       .  S
Cu47         N57   2.078       .  S
Cu48         N50   2.056       .  S
Cu48         N56   2.056       .  S
N49          N50   1.321       .  A
N49          C53   1.343       .  A
N50          C51   1.343       .  A
C51          C52   1.377       .  A
C51          H54   1.082       .  S
C52         C469   1.429       .  S
C52          C53   1.378       .  A
C53          H55   1.082       .  S
N56         N549   1.322       .  A
N56          C60   1.341       .  A
N57         N548   1.323   1_554  A
N57          C58   1.347       .  A
C58         C551   1.386   1_554  A
C58          H61   1.081       .  S
C59          C60   1.377       .  A
C59         C550   1.386       .  A
C59         C473   1.469       .  S
C60          H62   1.082       .  S
N63          N64   1.322       .  A
N63          C67   1.346       .  A
N63         Cu71   2.074       .  S
N64          C65   1.343       .  A
N64         Cu70   2.063       .  S
C65          C66   1.377       .  A
C65          H68   1.082       .  S
C66         C463   1.434       .  S
C66          C67   1.380       .  A
C67          H69   1.082       .  S
Cu70        N565   2.063       .  S
Cu71         N81   2.074       .  S
Cu72         N74   2.078       .  S
Cu72         N80   2.078       .  S
N73          N74   1.322       .  A
N73          C77   1.343       .  A
N73        Cu562   2.062       .  S
N74          C75   1.347       .  A
C75          C76   1.382       .  A
C75          H78   1.082       .  S
C76         C461   1.436       .  S
C76          C77   1.377       .  A
C77          H79   1.082       .  S
N80         N573   1.324   1_554  A
N80          C84   1.346       .  A
N81         N572   1.323       .  A
N81          C82   1.345       .  A
C82          C83   1.385       .  A
C82          H85   1.082       .  S
C83         C576   1.381       .  A
C83         C465   1.474       .  S
C84         C575   1.385   1_554  A
C84          H86   1.081       .  S
N87          N88   1.321       .  A
N87          C91   1.345       .  A
N87         Cu95   2.062       .  S
N88          C89   1.343       .  A
N88        Cu586   2.061   1_554  S
C89          C90   1.378       .  A
C89          H92   1.082       .  S
C90         C492   1.433       .  S
C90          C91   1.379       .  A
C91          H93   1.082       .  S
Cu94         N97   2.065       .  S
Cu94        N580   2.064       .  S
Cu95        N105   2.063   1_554  S
Cu96         N98   2.083       .  S
Cu96        N104   2.084       .  S
N97          N98   1.324       .  A
N97         C101   1.342       .  A
N98          C99   1.348       .  A
C99         C100   1.382       .  A
C99         H102   1.082       .  S
C100        C490   1.436       .  S
C100        C101   1.376       .  A
C101        H103   1.082       .  S
N104        N597   1.323       .  A
N104        C108   1.348       .  A
N105        N596   1.323       .  A
N105        C106   1.340       .  A
C106        C599   1.382       .  A
C106        H109   1.082   1_556  S
C107        C108   1.387       .  A
C107        C598   1.378       .  A
C107        C457   1.473       .  S
C108        H110   1.082       .  S
C111        C112   1.418       .  A
C111        C116   1.402       .  A
C111        C482   1.486   1_545  S
C112        C113   1.400       .  A
C112        C474   1.480   1_545  S
C113        C114   1.404       .  A
C113        H118   1.084       .  S
C114        C115   1.415       .  A
C114        C466   1.485       .  S
C115        C116   1.403       .  A
C115        C458   1.483       .  S
C116        H117   1.085       .  S
O119       Cu127   2.002       .  S
O119        C129   1.275       .  A
O120       Cu127   2.002       .  S
O120        C130   1.275       .  A
O121       Cu127   2.004       .  S
O121        C131   1.276       .  A
O122       Cu127   2.006       .  S
O122        C132   1.276       .  A
O123       Cu128   2.000       .  S
O123        C132   1.275       .  A
O124       Cu128   1.999       .  S
O124        C131   1.275       .  A
O125       Cu128   2.012       .  S
O125        C130   1.277       .  A
O126       Cu128   2.013       .  S
O126        C129   1.277       .  A
Cu127      Cu128   2.381       .  S
C129        C455   1.433       .  S
C130        C451   1.433       .  S
C131        C449   1.428       .  S
C132        C453   1.430       .  S
O133       Cu141   2.006       .  S
O133        C143   1.276       .  A
O134       Cu141   2.007       .  S
O134        C144   1.276       .  A
O135       Cu141   2.006       .  S
O135        C145   1.276       .  A
O136       Cu141   2.004       .  S
O136        C146   1.276       .  A
O137       Cu142   1.995       .  S
O137        C146   1.274       .  A
O138       Cu142   1.997       .  S
O138        C145   1.275       .  A
O139       Cu142   2.009       .  S
O139        C144   1.277       .  A
O140       Cu142   2.009       .  S
O140        C143   1.276       .  A
Cu141      Cu142   2.382       .  S
C143        C472   1.433       .  S
C144        C448   1.434       .  S
C145        C445   1.428       .  S
C146        C470   1.427       .  S
N147        N148   1.322       .  A
N147        C151   1.348       .  A
N147       Cu155   2.080       .  S
N148        C149   1.342       .  A
N148       Cu154   2.058       .  S
C149        C150   1.376       .  A
C149        H152   1.082       .  S
C150        C456   1.435       .  S
C150        C151   1.382       .  A
C151        H153   1.082       .  S
Cu154       N649   2.057   1_554  S
Cu155       N165   2.081       .  S
Cu156       N158   2.070       .  S
Cu156       N164   2.070       .  S
N157        N158   1.322       .  A
N157        C161   1.342       .  A
N157       Cu646   2.058       .  S
N158        C159   1.346       .  A
C159        C160   1.380       .  A
C159        H162   1.082       .  S
C160        C454   1.431       .  S
C160        C161   1.376       .  A
C161        H163   1.082       .  S
N164        N657   1.323       .  A
N164        C168   1.344       .  A
N165        N656   1.323       .  A
N165        C166   1.346       .  A
C166        C167   1.383       .  A
C166        H169   1.082       .  S
C167        C660   1.383       .  A
C167        C442   1.475       .  S
C168        C659   1.384       .  A
C168        H170   1.082       .  S
N171        N172   1.323       .  A
N171        C175   1.347       .  A
N171       Cu179   2.078       .  S
N172        C173   1.343       .  A
N172       Cu670   2.063       .  S
C173        C174   1.377       .  A
C173        H176   1.082       .  S
C174        C447   1.435       .  S
C174        C175   1.381       .  A
C175        H177   1.082       .  S
Cu178       N181   2.062   1_556  S
Cu178       N664   2.063       .  S
Cu179       N189   2.079       .  S
Cu180       N182   2.064       .  S
Cu180       N188   2.065       .  S
N181        N182   1.322       .  A
N181        C185   1.343       .  A
N182        C183   1.344       .  A
C183        C184   1.378       .  A
C183        H186   1.082       .  S
C184        C446   1.431       .  S
C184        C185   1.377       .  A
C185        H187   1.082       .  S
N188        N681   1.322   1_554  A
N188        C192   1.344       .  A
N189        N680   1.323       .  A
N189        C190   1.345       .  A
C190        C683   1.382       .  A
C190        H193   1.082       .  S
C191        C192   1.383   1_556  A
C191        C682   1.382       .  A
C191        C437   1.474       .  S
C192        H194   1.081       .  S
N195        N196   1.323       .  A
N195        C199   1.347       .  A
N195       Cu203   2.081       .  S
N196        C197   1.343       .  A
N196       Cu694   2.064       .  S
C197        C198   1.377       .  A
C197        H200   1.082       .  S
C198        C488   1.436       .  S
C198        C199   1.381       .  A
C199        H201   1.082       .  S
Cu202       N205   2.062   1_556  S
Cu202       N688   2.062       .  S
Cu203       N213   2.082       .  S
Cu204       N206   2.067       .  S
Cu204       N212   2.068   1_554  S
N205        N206   1.322       .  A
N205        C209   1.343       .  A
N206        C207   1.346       .  A
C207        C208   1.380       .  A
C207        H210   1.082       .  S
C208        C486   1.433       .  S
C208        C209   1.378       .  A
C209        H211   1.082       .  S
N212        N705   1.323       .  A
N212        C216   1.343       .  A
N213        N704   1.323       .  A
N213        C214   1.347       .  A
C214        C707   1.383       .  A
C214        H217   1.082       .  S
C215        C216   1.383       .  A
C215        C706   1.384       .  A
C215        C433   1.476       .  S
C216        H218   1.082   1_556  S
N219        N220   1.323       .  A
N219        C223   1.347       .  A
N219       Cu227   2.078       .  S
N220        C221   1.343       .  A
N220       Cu226   2.068       .  S
C221        C222   1.377       .  A
C221        H224   1.082       .  S
C222        C427   1.436       .  S
C222        C223   1.381       .  A
C223        H225   1.082       .  S
Cu226       N721   2.067   1_554  S
Cu227       N237   2.078       .  S
Cu228       N230   2.064       .  S
Cu228       N236   2.065       .  S
N229        N230   1.321       .  A
N229        C233   1.342       .  A
N229       Cu718   2.058       .  S
N230        C231   1.344       .  A
C231        C232   1.378       .  A
C231        H234   1.082       .  S
C232        C425   1.430       .  S
C232        C233   1.376       .  A
C233        H235   1.082       .  S
N236        N729   1.323       .  A
N236        C240   1.342       .  A
N237        N728   1.323   1_554  A
N237        C238   1.346       .  A
C238        C239   1.386   1_554  A
C238        H241   1.081       .  S
C239        C732   1.380       .  A
C239        C430   1.475       .  S
C240        C731   1.378       .  A
C240        H242   1.082       .  S
C243        C244   1.413       .  A
C243        C248   1.400       .  A
C243        C438   1.479   1_655  S
C244        C245   1.401   1_554  A
C244        C441   1.480   1_655  S
C245        C246   1.406   1_556  A
C245        H250   1.084       .  S
C246        C247   1.416       .  A
C246        C434   1.485   1_554  S
C247        C248   1.401       .  A
C247        C429   1.481       .  S
C248        H249   1.085       .  S
O251       Cu259   2.003       .  S
O251        C261   1.276       .  A
O252       Cu259   2.003       .  S
O252        C262   1.276       .  A
O253       Cu259   2.009       .  S
O253        C263   1.276       .  A
O254       Cu259   2.007       .  S
O254        C264   1.276       .  A
O255       Cu260   2.008       .  S
O255        C264   1.276       .  A
O256       Cu260   2.010       .  S
O256        C263   1.276       .  A
O257       Cu260   2.010       .  S
O257        C262   1.277       .  A
O258       Cu260   2.010       .  S
O258        C261   1.277       .  A
Cu259      Cu260   2.381       .  S
C261        C423   1.432       .  S
C262        C464   1.432       .  S
C263        C462   1.435       .  S
C264        C421   1.433       .  S
O265       Cu273   2.009       .  S
O265        C275   1.277       .  A
O266       Cu273   2.010       .  S
O266        C276   1.277       .  A
O267       Cu273   2.000       .  S
O267        C277   1.275       .  A
O268       Cu273   1.999       .  S
O268        C278   1.275       .  A
O269       Cu274   2.000       .  S
O269        C278   1.275       .  A
O270       Cu274   2.001       .  S
O270        C277   1.275       .  A
O271       Cu274   2.006       .  S
O271        C276   1.276       .  A
O272       Cu274   2.005       .  S
O272        C275   1.276       .  A
Cu273      Cu274   2.382       .  S
C275        C420   1.432       .  S
C276        C428   1.434       .  S
C277        C426   1.427       .  S
C278        C418   1.427       .  S
O279       Cu287   2.002       .  S
O279        C289   1.275       .  A
O280       Cu287   2.003       .  S
O280        C290   1.276       .  A
O281       Cu287   2.007       .  S
O281        C291   1.276       .  A
O282       Cu287   2.006       .  S
O282        C292   1.276       .  A
O283       Cu288   2.006       .  S
O283        C292   1.276       .  A
O284       Cu288   2.007       .  S
O284        C291   1.276       .  A
O285       Cu288   2.009       .  S
O285        C290   1.276       .  A
O286       Cu288   2.008       .  S
O286        C289   1.276       .  A
Cu287      Cu288   2.381       .  S
C289        C414   1.431       .  S
C290        C477   1.432       .  S
C291        C479   1.433       .  S
C292        C416   1.432       .  S
N293        N294   1.321       .  A
N293        C297   1.345       .  A
N293       Cu301   2.061       .  S
N294        C295   1.342       .  A
N294       Cu300   2.061       .  S
C295        C296   1.377       .  A
C295        H298   1.082       .  S
C296        C450   1.430       .  S
C296        C297   1.379       .  A
C297        H299   1.082       .  S
Cu300       N795   2.062   1_554  S
Cu301       N311   2.061       .  S
Cu302       N304   2.080       .  S
Cu302       N310   2.081       .  S
N303        N304   1.323       .  A
N303        C307   1.342       .  A
N303       Cu792   2.061       .  S
N304        C305   1.348       .  A
C305        C306   1.382       .  A
C305        H308   1.082       .  S
C306        C452   1.435       .  S
C306        C307   1.375       .  A
C307        H309   1.082       .  S
N310        N803   1.323       .  A
N310        C314   1.345       .  A
N311        N802   1.323       .  A
N311        C312   1.343       .  A
C312        C313   1.377       .  A
C312        H315   1.082       .  S
C313        C806   1.386       .  A
C313        C410   1.471       .  S
C314        C805   1.385       .  A
C314        H316   1.082       .  S
N317        N318   1.322       .  A
N317        C321   1.346       .  A
N317       Cu325   2.073       .  S
N318        C319   1.342       .  A
N318       Cu324   2.058       .  S
C319        C320   1.376       .  A
C319        H322   1.082       .  S
C320        C413   1.433       .  S
C320        C321   1.380       .  A
C321        H323   1.082       .  S
Cu324       N819   2.057       .  S
Cu325       N335   2.073       .  S
Cu326       N328   2.072       .  S
Cu326       N334   2.073       .  S
N327        N328   1.322       .  A
N327        C331   1.342       .  A
N327       Cu816   2.058       .  S
N328        C329   1.347       .  A
C329        C330   1.381       .  A
C329        H332   1.082       .  S
C330        C415   1.433       .  S
C330        C331   1.376       .  A
C331        H333   1.082       .  S
N334        N827   1.324   1_554  A
N334        C338   1.343       .  A
N335        N826   1.324       .  A
N335        C336   1.346       .  A
C336        C337   1.381       .  A
C336        H339   1.082       .  S
C337        C830   1.384       .  A
C337        C405   1.474       .  S
C338        C829   1.383   1_554  A
C338        H340   1.082       .  S
N341        N342   1.323       .  A
N341        C345   1.348       .  A
N341       Cu349   2.078       .  S
N342        C343   1.342       .  A
N342       Cu348   2.061       .  S
C343        C344   1.376       .  A
C343        H346   1.082       .  S
C344        C422   1.435       .  S
C344        C345   1.382       .  A
C345        H347   1.082       .  S
Cu348       N843   2.061       .  S
Cu349       N359   2.079       .  S
Cu350       N352   2.076       .  S
Cu350       N358   2.077       .  S
N351        N352   1.323       .  A
N351        C355   1.342       .  A
N351       Cu840   2.061       .  S
N352        C353   1.347       .  A
C353        C354   1.381       .  A
C353        H356   1.082       .  S
C354        C424   1.434       .  S
C354        C355   1.376       .  A
C355        H357   1.082       .  S
N358        N851   1.323   1_554  A
N358        C362   1.346       .  A
N359        N850   1.323       .  A
N359        C360   1.345       .  A
C360        C361   1.381       .  A
C360        H363   1.082       .  S
C361        C854   1.383       .  A
C361        C401   1.472       .  S
C362        C853   1.385       .  A
C362        H364   1.082       .  S
N365        N366   1.321       .  A
N365        C369   1.343       .  A
N365       Cu373   2.056       .  S
N366        C367   1.343       .  A
N366       Cu372   2.062   1_554  S
C367        C368   1.378       .  A
C367        H370   1.082       .  S
C368        C417   1.429       .  S
C368        C369   1.377       .  A
C369        H371   1.082       .  S
Cu372       N867   2.062       .  S
Cu373       N383   2.056       .  S
Cu374       N376   2.068       .  S
Cu374       N382   2.068       .  S
N375        N376   1.322       .  A
N375        C379   1.343       .  A
N375       Cu864   2.066       .  S
N376        C377   1.346       .  A
C377        C378   1.380       .  A
C377        H380   1.082       .  S
C378        C419   1.434       .  S
C378        C379   1.378       .  A
C379        H381   1.082       .  S
N382        N875   1.323       .  A
N382        C386   1.344       .  A
N383        N874   1.322   1_554  A
N383        C384   1.340       .  A
C384        C385   1.381   1_554  A
C384        H387   1.082       .  S
C385        C878   1.382       .  A
C385        C398   1.470       .  S
C386        C877   1.379       .  A
C386        H388   1.082       .  S
C389        C390   1.412       .  A
C389        C394   1.404       .  A
C389        C406   1.483       .  S
C390        C391   1.404       .  A
C390        C901   1.482       .  S
C391        C392   1.398       .  A
C391        H396   1.084       .  S
C392        C393   1.410       .  A
C392        C402   1.477       .  S
C393        C394   1.404       .  A
C393        C889   1.480       .  S
C394        H395   1.084       .  S
C397        C885   1.476       .  S
C397        C398   1.341   1_554  D
C397        H399   1.086       .  S
C398        H892   1.087       .  S
H400        C890   1.087       .  S
C401        C402   1.342       .  D
C401        H403   1.087       .  S
C402        H896   1.086       .  S
H404        C894   1.086       .  S
C405        C406   1.342       .  D
C405        H407   1.086       .  S
C406        H900   1.087       .  S
H408        C898   1.087       .  S
C409        C882   1.481       .  S
C409        C410   1.339       .  D
C409        H903   1.087       .  S
C410        H412   1.086       .  S
H411        C901   1.087       .  S
C413        C414   1.203       .  T
C415        C416   1.204       .  T
C417        C418   1.201       .  T
C419        C420   1.204       .  T
C421        C422   1.205       .  T
C423        C424   1.204       .  T
C425        C426   1.201       .  T
C427        C428   1.205       .  T
C429        C430   1.342   1_554  D
C429        H431   1.086       .  S
C430        H924   1.087       .  S
H432        C922   1.087       .  S
C433        C434   1.345       .  D
C433        H927   1.086       .  S
C434        H436   1.086   1_556  S
H435        C925   1.086       .  S
C437        C438   1.343   1_556  D
C437        H931   1.087       .  S
C438        H440   1.086   1_455  S
H439        C929   1.087       .  S
C441        C442   1.344       .  D
C441        H935   1.086   1_554  S
C442        H444   1.087       .  S
H443        C933   1.086       .  S
C445        C446   1.202       .  T
C447        C448   1.205       .  T
C449        C450   1.202       .  T
C451        C452   1.204       .  T
C453        C454   1.203       .  T
C455        C456   1.205       .  T
C457        C458   1.342       .  D
C457        H951   1.087       .  S
C458        H460   1.086       .  S
H459        C949   1.086       .  S
C461        C462   1.205       .  T
C463        C464   1.204       .  T
C465        C466   1.343       .  D
C465        H467   1.086       .  S
C466        H960   1.086       .  S
H468        C958   1.086       .  S
C469        C470   1.201       .  T
C471        C472   1.204       .  T
C473        C474   1.341       .  D
C473        H475   1.087       .  S
C474        H968   1.086   1_565  S
H476        C966   1.086       .  S
C477        C478   1.204       .  T
C479        C480   1.204       .  T
C481        C482   1.345       .  D
C481        H975   1.087       .  S
C482        H484   1.086       .  S
H483        C973   1.087       .  S
C485        C486   1.204       .  T
C487        C488   1.205       .  T
C489        C490   1.205       .  T
C491        C492   1.203       .  T
O493       Cu501   2.010       .  S
O493        C503   1.277       .  A
O494       Cu501   2.012       .  S
O494        C504   1.277       .  A
O495       Cu501   2.008       .  S
O495        C505   1.276       .  A
O496       Cu501   2.010       .  S
O496        C506   1.276       .  A
O497       Cu502   2.008       .  S
O497        C506   1.276       .  A
O498       Cu502   2.004       .  S
O498        C505   1.276       .  A
O499       Cu502   2.006       .  S
O499        C504   1.276       .  A
O500       Cu502   2.004       .  S
O500        C503   1.276       .  A
Cu501      Cu502   2.380       .  S
C503        C977   1.433       .  S
C504        C981   1.434       .  S
C505        C983   1.432       .  S
C506        C979   1.435       .  S
N507        N508   1.322       .  A
N507        C511   1.346       .  A
N507       Cu515   2.073       .  S
N508        C509   1.343       .  A
N508       Cu514   2.065   1_556  S
C509        C510   1.378       .  A
C509        H512   1.082       .  S
C510        C972   1.435       .  S
C510        C511   1.380       .  A
C511        H513   1.082       .  S
Cu515       N525   2.074       .  S
Cu516       N518   2.072       .  S
Cu516       N524   2.073       .  S
N517        N518   1.322       .  A
N517        C521   1.344       .  A
N518        C519   1.346       .  A
C519        C520   1.380       .  A
C519        H522   1.082       .  S
C520        C970   1.436       .  S
C520        C521   1.378       .  A
C521        H523   1.082       .  S
N524        C528   1.344       .  A
N525        C526   1.344       .  A
C526        C527   1.385   1_556  A
C526        H529   1.081       .  S
C527        C973   1.475       .  S
C528        H530   1.082       .  S
N531        N532   1.323       .  A
N531        C535   1.346       .  A
N531       Cu539   2.078       .  S
N532        C533   1.343       .  A
C533        C534   1.376       .  A
C533        H536   1.082       .  S
C534        C963   1.434       .  S
C534        C535   1.380       .  A
C535        H537   1.082       .  S
Cu538       N541   2.061       .  S
Cu539       N549   2.077       .  S
Cu540       N542   2.071       .  S
Cu540       N548   2.071       .  S
N541        N542   1.322       .  A
N541        C545   1.342       .  A
N542        C543   1.346       .  A
C543        C544   1.381       .  A
C543        H546   1.082       .  S
C544        C961   1.434       .  S
C544        C545   1.377       .  A
C545        H547   1.082       .  S
N548        C552   1.343       .  A
N549        C550   1.347       .  A
C550        H553   1.081       .  S
C551        C552   1.379       .  A
C551        C965   1.473       .  S
C552        H554   1.082       .  S
N555        N556   1.322       .  A
N555        C559   1.347       .  A
N555       Cu563   2.076       .  S
N556        C557   1.343       .  A
N556       Cu562   2.062   1_556  S
C557        C558   1.377       .  A
C557        H560   1.082       .  S
C558        C955   1.435       .  S
C558        C559   1.381       .  A
C559        H561   1.082       .  S
Cu563       N573   2.077       .  S
Cu564       N566   2.073       .  S
Cu564       N572   2.074       .  S
N565        N566   1.323       .  A
N565        C569   1.343       .  A
N566        C567   1.346       .  A
C567        C568   1.380       .  A
C567        H570   1.082       .  S
C568        C953   1.434       .  S
C568        C569   1.377       .  A
C569        H571   1.082       .  S
N572        C576   1.345       .  A
N573        C574   1.345       .  A
C574        C575   1.381       .  A
C574        H577   1.082       .  S
C575        C957   1.475       .  S
C576        H578   1.082       .  S
N579        N580   1.321       .  A
N579        C583   1.345       .  A
N579       Cu587   2.065       .  S
N580        C581   1.344       .  A
C581        C582   1.379       .  A
C581        H584   1.082       .  S
C582        C984   1.433       .  S
C582        C583   1.379       .  A
C583        H585   1.082       .  S
Cu586       N589   2.061       .  S
Cu587       N597   2.066       .  S
Cu588       N590   2.086       .  S
Cu588       N596   2.085       .  S
N589        N590   1.324       .  A
N589        C593   1.342       .  A
N590        C591   1.348       .  A
C591        C592   1.383       .  A
C591        H594   1.082       .  S
C592        C982   1.436       .  S
C592        C593   1.375       .  A
C593        H595   1.082       .  S
N596        C600   1.348       .  A
N597        C598   1.342       .  A
C598        H601   1.082       .  S
C599        C600   1.385       .  A
C599        C949   1.476       .  S
C600        H602   1.082       .  S
C603        C604   1.417   1_556  A
C603        C608   1.401       .  A
C603        C974   1.483   1_545  S
C604        C605   1.401       .  A
C604        C966   1.482       .  S
C605        C606   1.401       .  A
C605        H610   1.085       .  S
C606        C607   1.415   1_554  A
C606        C958   1.484       .  S
C607        C608   1.404       .  A
C607        C950   1.481       .  S
C608        H609   1.084       .  S
O611       Cu619   2.005       .  S
O611        C621   1.276       .  A
O612       Cu619   2.010       .  S
O612        C622   1.276       .  A
O613       Cu619   2.005       .  S
O613        C623   1.276       .  A
O614       Cu619   2.003       .  S
O614        C624   1.275       .  A
O615       Cu620   2.002       .  S
O615        C624   1.276       .  A
O616       Cu620   2.004       .  S
O616        C623   1.276       .  A
O617       Cu620   2.007       .  S
O617        C622   1.276       .  A
O618       Cu620   2.006       .  S
O618        C621   1.276       .  A
Cu619      Cu620   2.381       .  S
C621        C947   1.431       .  S
C622        C943   1.434       .  S
C623        C941   1.431       .  S
C624        C945   1.429       .  S
O625       Cu633   2.006       .  S
O625        C635   1.276       .  A
O626       Cu633   2.007       .  S
O626        C636   1.276       .  A
O627       Cu633   2.003       .  S
O627        C637   1.276       .  A
O628       Cu633   2.004       .  S
O628        C638   1.275       .  A
O629       Cu634   2.009       .  S
O629        C638   1.277       .  A
O630       Cu634   2.011       .  S
O630        C637   1.277       .  A
O631       Cu634   2.007       .  S
O631        C636   1.276       .  A
O632       Cu634   2.007       .  S
O632        C635   1.276       .  A
Cu633      Cu634   2.381       .  S
C635        C964   1.432       .  S
C636        C940   1.433       .  S
C637        C937   1.433       .  S
C638        C962   1.432       .  S
N639        N640   1.322       .  A
N639        C643   1.347       .  A
N639       Cu647   2.075       .  S
N640        C641   1.341       .  A
N640       Cu646   2.058       .  S
C641        C642   1.375       .  A
C641        H644   1.082       .  S
C642        C948   1.433       .  S
C642        C643   1.381       .  A
C643        H645   1.082       .  S
Cu647       N657   2.076       .  S
Cu648       N650   2.068       .  S
Cu648       N656   2.069   1_556  S
N649        N650   1.322       .  A
N649        C653   1.342       .  A
N650        C651   1.345       .  A
C651        C652   1.380       .  A
C651        H654   1.082       .  S
C652        C946   1.431       .  S
C652        C653   1.376       .  A
C653        H655   1.082       .  S
N656        C660   1.344       .  A
N657        C658   1.345       .  A
C658        C659   1.381       .  A
C658        H661   1.082       .  S
C659        C934   1.473       .  S
C660        H662   1.081   1_554  S
N663        N664   1.323       .  A
N663        C667   1.347       .  A
N663       Cu671   2.078       .  S
N664        C665   1.343       .  A
C665        C666   1.377       .  A
C665        H668   1.082       .  S
C666        C939   1.435       .  S
C666        C667   1.381       .  A
C667        H669   1.082       .  S
Cu670       N673   2.063       .  S
Cu671       N681   2.078       .  S
Cu672       N674   2.077       .  S
Cu672       N680   2.078       .  S
N673        N674   1.322       .  A
N673        C677   1.344       .  A
N674        C675   1.346       .  A
C675        C676   1.381       .  A
C675        H678   1.082       .  S
C676        C938   1.435       .  S
C676        C677   1.378       .  A
C677        H679   1.082       .  S
N680        C684   1.346       .  A
N681        C682   1.345       .  A
C682        H685   1.082       .  S
C683        C684   1.386       .  A
C683        C929   1.477       .  S
C684        H686   1.081       .  S
N687        N688   1.323       .  A
N687        C691   1.348       .  A
N687       Cu695   2.083       .  S
N688        C689   1.343       .  A
C689        C690   1.376       .  A
C689        H692   1.082       .  S
C690        C980   1.436       .  S
C690        C691   1.382       .  A
C691        H693   1.082       .  S
Cu694       N697   2.064       .  S
Cu695       N705   2.083       .  S
Cu696       N698   2.072       .  S
Cu696       N704   2.073       .  S
N697        N698   1.322       .  A
N697        C701   1.343       .  A
N698        C699   1.346       .  A
C699        C700   1.380       .  A
C699        H702   1.082       .  S
C700        C978   1.435       .  S
C700        C701   1.378       .  A
C701        H703   1.082       .  S
N704        C708   1.344       .  A
N705        C706   1.347       .  A
C706        H709   1.082       .  S
C707        C708   1.383       .  A
C707        C925   1.476       .  S
C708        H710   1.082       .  S
N711        N712   1.323       .  A
N711        C715   1.346       .  A
N711       Cu719   2.076       .  S
N712        C713   1.342       .  A
N712       Cu718   2.058       .  S
C713        C714   1.376       .  A
C713        H716   1.082       .  S
C714        C919   1.432       .  S
C714        C715   1.380       .  A
C715        H717   1.082       .  S
Cu719       N729   2.076       .  S
Cu720       N722   2.070       .  S
Cu720       N728   2.070       .  S
N721        N722   1.322       .  A
N721        C725   1.344       .  A
N722        C723   1.346       .  A
C723        C724   1.380       .  A
C723        H726   1.082       .  S
C724        C917   1.435       .  S
C724        C725   1.379       .  A
C725        H727   1.082       .  S
N728        C732   1.344       .  A
N729        C730   1.346       .  A
C730        C731   1.385       .  A
C730        H733   1.082       .  S
C731        C922   1.471       .  S
C732        H734   1.082       .  S
C735        C736   1.415       .  A
C735        C740   1.401       .  A
C735        C930   1.484       .  S
C736        C737   1.402       .  A
C736        C933   1.477   1_655  S
C737        C738   1.403       .  A
C737        H742   1.084       .  S
C738        C739   1.413       .  A
C738        C926   1.484       .  S
C739        C740   1.402       .  A
C739        C921   1.480       .  S
C740        H741   1.085       .  S
O743       Cu751   2.006       .  S
O743        C753   1.276       .  A
O744       Cu751   2.009       .  S
O744        C754   1.276       .  A
O745       Cu751   2.007       .  S
O745        C755   1.276       .  A
O746       Cu751   2.009       .  S
O746        C756   1.276       .  A
O747       Cu752   2.004       .  S
O747        C756   1.276       .  A
O748       Cu752   2.004       .  S
O748        C755   1.276       .  A
O749       Cu752   2.005       .  S
O749        C754   1.276       .  A
O750       Cu752   2.003       .  S
O750        C753   1.276       .  A
Cu751      Cu752   2.381       .  S
C753        C915   1.430       .  S
C754        C956   1.433       .  S
C755        C954   1.432       .  S
C756        C913   1.432       .  S
O757       Cu765   2.006       .  S
O757        C767   1.276       .  A
O758       Cu765   2.006       .  S
O758        C768   1.276       .  A
O759       Cu765   2.005       .  S
O759        C769   1.276       .  A
O760       Cu765   2.005       .  S
O760        C770   1.276       .  A
O761       Cu766   2.013       .  S
O761        C770   1.277       .  A
O762       Cu766   2.012       .  S
O762        C769   1.277       .  A
O763       Cu766   2.003       .  S
O763        C768   1.276       .  A
O764       Cu766   2.004       .  S
O764        C767   1.276       .  A
Cu765      Cu766   2.381       .  S
C767        C912   1.431       .  S
C768        C920   1.430       .  S
C769        C918   1.434       .  S
C770        C910   1.434       .  S
O771       Cu779   2.008       .  S
O771        C781   1.276       .  A
O772       Cu779   2.011       .  S
O772        C782   1.277       .  A
O773       Cu779   2.008       .  S
O773        C783   1.276       .  A
O774       Cu779   2.006       .  S
O774        C784   1.276       .  A
O775       Cu780   2.007       .  S
O775        C784   1.276       .  A
O776       Cu780   2.008       .  S
O776        C783   1.276       .  A
O777       Cu780   2.006       .  S
O777        C782   1.276       .  A
O778       Cu780   2.003       .  S
O778        C781   1.276       .  A
Cu779      Cu780   2.381       .  S
C781        C906   1.431       .  S
C782        C969   1.434       .  S
C783        C971   1.433       .  S
C784        C908   1.432       .  S
N785        N786   1.321       .  A
N785        C789   1.344       .  A
N785       Cu793   2.064       .  S
N786        C787   1.344       .  A
N786       Cu792   2.061       .  S
C787        C788   1.378       .  A
C787        H790   1.082       .  S
C788        C942   1.433       .  S
C788        C789   1.379       .  A
C789        H791   1.082       .  S
Cu793       N803   2.064       .  S
Cu794       N796   2.079       .  S
Cu794       N802   2.080   1_556  S
N795        N796   1.323       .  A
N795        C799   1.343       .  A
N796        C797   1.348       .  A
C797        C798   1.382       .  A
C797        H800   1.082       .  S
C798        C944   1.436       .  S
C798        C799   1.377       .  A
C799        H801   1.082       .  S
N802        C806   1.345       .  A
N803        C804   1.343       .  A
C804        C805   1.378       .  A
C804        H807   1.082       .  S
C805        C902   1.472       .  S
C806        H808   1.082   1_554  S
N809        N810   1.322       .  A
N809        C813   1.347       .  A
N809       Cu817   2.073       .  S
N810        C811   1.342       .  A
N810       Cu816   2.058   1_556  S
C811        C812   1.376       .  A
C811        H814   1.082       .  S
C812        C905   1.433       .  S
C812        C813   1.381       .  A
C813        H815   1.082       .  S
Cu817       N827   2.074       .  S
Cu818       N820   2.077       .  S
Cu818       N826   2.077       .  S
N819        N820   1.322       .  A
N819        C823   1.341       .  A
N820        C821   1.348       .  A
C821        C822   1.382       .  A
C821        H824   1.082       .  S
C822        C907   1.434       .  S
C822        C823   1.375       .  A
C823        H825   1.082       .  S
N826        C830   1.344       .  A
N827        C828   1.345       .  A
C828        C829   1.380       .  A
C828        H831   1.082       .  S
C829        C897   1.472       .  S
C830        H832   1.082       .  S
N833        N834   1.321       .  A
N833        C837   1.346       .  A
N833       Cu841   2.070       .  S
N834        C835   1.342       .  A
N834       Cu840   2.061   1_556  S
C835        C836   1.377       .  A
C835        H838   1.082       .  S
C836        C914   1.434       .  S
C836        C837   1.381       .  A
C837        H839   1.082       .  S
Cu841       N851   2.071       .  S
Cu842       N844   2.067       .  S
Cu842       N850   2.068       .  S
N843        N844   1.322       .  A
N843        C847   1.343       .  A
N844        C845   1.345       .  A
C845        C846   1.379       .  A
C845        H848   1.082       .  S
C846        C916   1.432       .  S
C846        C847   1.377       .  A
C847        H849   1.082       .  S
N850        C854   1.344       .  A
N851        C852   1.343       .  A
C852        C853   1.379   1_556  A
C852        H855   1.082       .  S
C853        C893   1.472       .  S
C854        H856   1.082       .  S
N857        N858   1.322       .  A
N857        C861   1.346       .  A
N857       Cu865   2.076       .  S
N858        C859   1.344       .  A
N858       Cu864   2.066       .  S
C859        C860   1.378       .  A
C859        H862   1.082       .  S
C860        C909   1.436       .  S
C860        C861   1.381       .  A
C861        H863   1.082       .  S
Cu865       N875   2.076       .  S
Cu866       N868   2.073       .  S
Cu866       N874   2.073       .  S
N867        N868   1.323       .  A
N867        C871   1.343       .  A
N868        C869   1.346       .  A
C869        C870   1.380       .  A
C869        H872   1.082       .  S
C870        C911   1.433       .  S
C870        C871   1.376       .  A
C871        H873   1.082       .  S
N874        C878   1.346       .  A
N875        C876   1.344       .  A
C876        C877   1.385       .  A
C876        H879   1.082       .  S
C877        C890   1.472       .  S
C878        H880   1.082       .  S
C881        C882   1.411       .  A
C881        C886   1.401       .  A
C881        C898   1.480       .  S
C882        C883   1.405       .  A
C883        C884   1.399       .  A
C883        H888   1.084       .  S
C884        C885   1.412       .  A
C884        C894   1.480       .  S
C885        C886   1.401       .  A
C886        H887   1.084       .  S
C889        C890   1.340       .  D
C889        H891   1.086       .  S
C893        C894   1.342       .  D
C893        H895   1.087   1_554  S
C897        C898   1.341   1_556  D
C897        H899   1.087       .  S
C901        C902   1.341       .  D
C902        H904   1.086       .  S
C905        C906   1.204       .  T
C907        C908   1.204       .  T
C909        C910   1.205       .  T
C911        C912   1.203       .  T
C913        C914   1.204       .  T
C915        C916   1.203       .  T
C917        C918   1.205       .  T
C919        C920   1.203       .  T
C921        C922   1.341       .  D
C921        H923   1.086       .  S
C925        C926   1.343       .  D
C926        H928   1.086       .  S
C929        C930   1.344   1_455  D
C930        H932   1.086       .  S
C933        C934   1.342       .  D
C934        H936   1.087       .  S
C937        C938   1.204       .  T
C939        C940   1.205       .  T
C941        C942   1.203       .  T
C943        C944   1.205       .  T
C945        C946   1.202       .  T
C947        C948   1.203       .  T
C949        C950   1.344       .  D
C950        H952   1.086   1_556  S
C953        C954   1.204       .  T
C955        C956   1.204       .  T
C957        C958   1.344   1_556  D
C957        H959   1.087       .  S
C961        C962   1.204       .  T
C963        C964   1.204       .  T
C965        C966   1.342   1_566  D
C965        H967   1.087       .  S
C969        C970   1.205       .  T
C971        C972   1.205       .  T
C973        C974   1.344   1_554  D
C974        H976   1.086       .  S
C977        C978   1.204       .  T
C979        C980   1.206       .  T
C981        C982   1.205       .  T
C983        C984   1.204       .  T
