geometry optimzed in LAMMPS
_audit_creation_date              2020-11-30 
_audit_creation_method            'lammps2cif' 
_symmetry_space_group_name_H-M    'P1' 
_symmetry_Int_Tables_number       1 
_symmetry_cell_setting            triclinic 
loop_ 
_symmetry_equiv_pos_as_xyz 
  x,y,z 
_cell_length_a                    32.08183148731578 
_cell_length_b                    31.55028029169885 
_cell_length_c                    32.05608878312527 
_cell_angle_alpha                 90.41066042836249 
_cell_angle_beta                  89.91125916322042 
_cell_angle_gamma                 90.34433357898992 
loop_ 
_atom_site_label 
_atom_site_type_symbol 
_atom_site_fract_x 
_atom_site_fract_y 
_atom_site_fract_z 
_atom_site_charge 
C1          C  0.26830856  0.23690987  0.49701990    -0.00520
C2          C  0.23386793  0.26159499  0.50146653    -0.00520
C3          C  0.25679150  0.47945975  0.29659261    -0.00520
C4          C  0.28489794  0.48240553  0.26368117    -0.00520
C5          C  0.48222411  0.22128507  0.26730255    -0.00520
C6          C  0.48325071  0.25510941  0.24185090    -0.00520
C7          C  0.22733792  0.19395343  0.00189268    -0.00520
C8          C  0.19083441  0.21687374  0.00463815    -0.00520
C9          C  0.98091521  0.17912828  0.23556613    -0.00520
C10         C  0.98158529  0.21218311  0.20849318    -0.00520
C11         C  0.19544522  0.98069402  0.23477433    -0.00520
C12         C  0.22662159  0.98770762  0.20568728    -0.00520
C13         C  0.73538939  0.26441329  0.49710104    -0.00520
C14         C  0.70888141  0.23019508  0.49759084    -0.00520
C15         C  0.26925082  0.72402086  0.50304670    -0.00520
C16         C  0.24513362  0.68786021  0.49687845    -0.00520
C17         C  0.48788856  0.68410098  0.25656265    -0.00520
C18         C  0.48523205  0.71487752  0.28696407    -0.00520
C19         C  0.71956810  0.48060663  0.29047600    -0.00520
C20         C  0.68528388  0.47371526  0.26493695    -0.00520
C21         C  0.47932274  0.25874990  0.74967659    -0.00520
C22         C  0.47499602  0.22513033  0.72304219    -0.00520
C23         C  0.27457733  0.48213548  0.73889605    -0.00520
C24         C  0.24096520  0.48064258  0.71259141    -0.00520
C25         C  0.22396372  0.78123090  0.98839838    -0.00520
C26         C  0.19626031  0.74724591  0.98686322    -0.00520
C27         C  0.75880655  0.17095097  0.99472988    -0.00520
C28         C  0.78759183  0.20432059  0.99687545    -0.00520
C29         C  0.98817748  0.21338909  0.78965256    -0.00520
C30         C  0.98330133  0.18276977  0.75898449    -0.00520
C31         C  0.22392590  0.98049295  0.78998310    -0.00520
C32         C  0.19349793  0.98519163  0.75977473    -0.00520
C33         C  0.97766579  0.77920599  0.23473803    -0.00520
C34         C  0.97957230  0.74923981  0.20273987    -0.00520
C35         C  0.74592598  0.98405397  0.20569471    -0.00520
C36         C  0.77529969  0.98136726  0.23715904    -0.00520
N37         N  0.31216087  0.52794770  0.94848822    -0.07210
N38         N  0.33723675  0.53291287  0.91599867    -0.59330
N39         N  0.28327102  0.55961719  0.04513626    -0.06890
N40         N  0.28738986  0.58670923  0.07637312    -0.61450
N41         N  0.31282020  0.53114051  0.04601782    -0.06480
N42         N  0.33761883  0.53791683  0.07833454    -0.59300
N43         N  0.28244927  0.55646827  0.94810019    -0.06160
N44         N  0.28693566  0.58168470  0.91551237    -0.61810
C45         C  0.32098988  0.56642306  0.89550498     0.94970
C46         C  0.32115313  0.57269382  0.09694034     0.94750
N47         N  0.15292772  0.53283751  0.04762244    -0.07390
N48         N  0.12336758  0.55137874  0.07087602    -0.59900
N49         N  0.18439580  0.55612980  0.95250963    -0.05510
N50         N  0.17816564  0.58843726  0.92852880    -0.61160
N51         N  0.15160901  0.53100085  0.95226091    -0.07420
N52         N  0.12226232  0.54706532  0.92738097    -0.60170
N53         N  0.18628541  0.55751886  0.04700851    -0.05150
N54         N  0.18075999  0.59096187  0.07060551    -0.61240
Mn55       Mn  0.23418749  0.55767800  0.99809447     1.18440
C56         C  0.14186663  0.58771383  0.08577943     0.97050
C57         C  0.14023998  0.58311879  0.91194848     0.97720
N58         N  0.31232669  0.43215967  0.04740993    -0.07440
N59         N  0.33966274  0.42589028  0.07735756    -0.63750
N60         N  0.28372262  0.40032526  0.95336059    -0.06240
N61         N  0.28968837  0.37134467  0.92435144    -0.64420
N62         N  0.31413986  0.42823966  0.95364554    -0.06950
N63         N  0.34201594  0.41867737  0.92490052    -0.64010
N64         N  0.28328491  0.40249421  0.04745754    -0.05840
N65         N  0.29058752  0.37495175  0.07731757    -0.64700
Mn66       Mn  0.31409242  0.48023668  0.99886870     1.10660
C67         C  0.32576365  0.39009715  0.09555262     0.98280
C68         C  0.32628992  0.38290211  0.90721033     0.98350
N69         N  0.15420648  0.42913346  0.94985147    -0.06950
N70         N  0.12615700  0.41553810  0.92211965    -0.62330
N71         N  0.18459741  0.40008614  0.04568611    -0.06270
N72         N  0.17772861  0.36662513  0.06893555    -0.60020
N73         N  0.15257488  0.42607577  0.04696018    -0.07580
N74         N  0.12284954  0.40935772  0.07115276    -0.61890
N75         N  0.18719544  0.40453192  0.94848719    -0.06570
N76         N  0.18313706  0.37606568  0.91866396    -0.59080
Mn77       Mn  0.15065803  0.47941364  0.99968906     1.20190
Mn78       Mn  0.23422719  0.40133098  0.99887384     1.10090
Cl79       Cl  0.23315541  0.47963460  0.99922513    -0.87050
C80         C  0.14448869  0.38166739  0.90283354     0.95280
C81         C  0.13948636  0.37221550  0.08513939     0.95080
N82         N  0.78262066  0.42253438  0.91927512    -0.07210
N83         N  0.81048199  0.40893884  0.89147111    -0.59330
N84         N  0.68522129  0.39396084  0.94718261    -0.06890
N85         N  0.65946669  0.36438328  0.93157222    -0.61450
N86         N  0.68676464  0.42597949  0.92133813    -0.06480
N87         N  0.66093875  0.42080186  0.89047767    -0.59300
N88         N  0.78207240  0.39700783  0.95143615    -0.06160
N89         N  0.81118953  0.36845315  0.94796868    -0.61810
C90         C  0.82802631  0.37460674  0.91000180     0.94970
C91         C  0.64406314  0.38242211  0.89603040     0.94750
N92         N  0.69013068  0.42921317  0.07722124    -0.07390
N93         N  0.66535394  0.42437167  0.10942964    -0.59900
N94         N  0.78291271  0.39542650  0.04505798    -0.05510
N95         N  0.80626331  0.36244946  0.05219827    -0.61160
N96         N  0.78734923  0.42389925  0.07482609    -0.07420
N97         N  0.81308819  0.40911209  0.10400104    -0.60170
N98         N  0.68721078  0.39675165  0.05138195    -0.05150
N99         N  0.66225309  0.36746141  0.06795060    -0.61240
Mn100      Mn  0.73320212  0.39434493  0.99864442     1.18440
C101        C  0.64865014  0.38554457  0.10437027     0.97050
C102        C  0.82487231  0.37026419  0.08913955     0.97720
N103        N  0.68462076  0.51985397  0.91992776    -0.07440
N104        N  0.65790042  0.52607783  0.88964301    -0.63750
N105        N  0.78136363  0.54902550  0.94832520    -0.06240
N106        N  0.80890287  0.57878788  0.94423953    -0.64420
N107        N  0.78133013  0.52496013  0.91505073    -0.06950
N108        N  0.80669169  0.54170486  0.88601529    -0.64010
N109        N  0.68365098  0.55116538  0.94707828    -0.05840
N110        N  0.65783098  0.58094759  0.93357490    -0.64700
Mn111      Mn  0.73458000  0.47319678  0.91766861     1.10660
C112        C  0.64167998  0.56466152  0.89741265     0.98280
C113        C  0.82415086  0.57638006  0.90550722     0.98350
N114        N  0.78702469  0.52817577  0.07373930    -0.06950
N115        N  0.81137631  0.54523087  0.10309613    -0.62330
N116        N  0.68676636  0.55387382  0.04998572    -0.06270
N117        N  0.65798766  0.58102135  0.06428615    -0.59060
N118        N  0.69252736  0.52397689  0.07759311    -0.07580
N119        N  0.66785745  0.52885321  0.10952580    -0.61890
N120        N  0.78352010  0.55458500  0.04248977    -0.06570
N121        N  0.80702102  0.58812238  0.04854938    -0.59080
Mn122      Mn  0.74042462  0.47617645  0.07644506     1.20190
Mn123      Mn  0.73280564  0.55302922  0.99669071     1.10090
Cl124      Cl  0.73506831  0.47406424  0.99745606    -0.87050
C125        C  0.82421669  0.58269160  0.08628523     0.95280
C126        C  0.64604379  0.56405506  0.10177841     0.95080
C127        C  0.84660344  0.33685469  0.88838734    -0.00520
C128        C  0.87174549  0.33898741  0.85387022    -0.00520
C129        C  0.86910551  0.62141740  0.13901736    -0.00520
C130        C  0.83911989  0.62116426  0.10927597    -0.00520
N131        N  0.93083542  0.42739630  0.82431681    -0.07210
N132        N  0.90354384  0.41263703  0.85208537    -0.59330
N133        N  0.02821719  0.40011696  0.79603157    -0.06890
N134        N  0.05547035  0.36975113  0.80061881    -0.61450
N135        N  0.02787292  0.42521282  0.82886603    -0.06480
N136        N  0.05446077  0.41040383  0.85730057    -0.59300
N137        N  0.92940853  0.40394279  0.79025952    -0.06160
N138        N  0.89925379  0.37567928  0.79302537    -0.61810
C139        C  0.88389235  0.37968817  0.83223130     0.94970
C140        C  0.07202101  0.37560188  0.83856527     0.94750
N141        N  0.03501241  0.42600192  0.66980658    -0.07390
N142        N  0.06634401  0.41726241  0.64460065    -0.59900
N143        N  0.94052865  0.39676035  0.69379075    -0.05510
N144        N  0.91242195  0.36724060  0.68656441    -0.61160
N145        N  0.94160390  0.42464787  0.66366383    -0.07420
N146        N  0.91334225  0.41508043  0.63526179    -0.60170
N147        N  0.03210782  0.39733651  0.69926389    -0.05150
N148        N  0.06084037  0.36808224  0.69448829    -0.61240
Mn149      Mn  0.98235829  0.39926397  0.74558975     1.18440
C150        C  0.08188065  0.38097630  0.66035093     0.97050
C151        C  0.89559798  0.37906534  0.65008546     0.97720
N152        N  0.02890513  0.52857570  0.82833420    -0.07440
N153        N  0.05372569  0.54412131  0.85821360    -0.63750
N154        N  0.93435477  0.55427693  0.79272561    -0.06240
N155        N  0.90844970  0.58571952  0.79743899    -0.64420
N156        N  0.93324350  0.53003158  0.82595654    -0.06950
N157        N  0.90700602  0.54649612  0.85427034    -0.64010
N158        N  0.03108759  0.55280612  0.79508183    -0.05840
N159        N  0.05868811  0.58287604  0.80089526    -0.64700
Mn160      Mn  0.98027064  0.47764117  0.82910405     1.10660
C161        C  0.07283898  0.57814050  0.84018172     0.98280
C162        C  0.89110600  0.58167944  0.83544508     0.98350
N163        N  0.94024137  0.52569940  0.66267539    -0.06950
N164        N  0.91214673  0.53316691  0.63351881    -0.62330
N165        N  0.03354977  0.55618063  0.69636767    -0.06270
N166        N  0.06238666  0.58550889  0.68965654    -0.59060
N167        N  0.03484191  0.52701862  0.66695509    -0.07580
N168        N  0.06449802  0.53583217  0.63967449    -0.61890
N169        N  0.93810936  0.55438383  0.69256173    -0.06570
N170        N  0.90832549  0.58178789  0.68423048    -0.59080
Mn171      Mn  0.98800208  0.47595341  0.66482600     1.20190
Mn172      Mn  0.98412900  0.55499175  0.74460467     1.10090
Cl173      Cl  0.98369354  0.47713376  0.74591568    -0.87050
C174        C  0.89299885  0.56888684  0.64690218     0.95280
C175        C  0.08102455  0.57278628  0.65379249     0.95080
C176        C  0.12134356  0.34177094  0.89062259    -0.00520
C177        C  0.09239802  0.33848403  0.85948712    -0.00520
C178        C  0.84019775  0.61780011  0.88646498    -0.00520
C179        C  0.87008455  0.61999667  0.85579492    -0.00520
C180        C  0.12005849  0.62034739  0.89092362    -0.00520
C181        C  0.08868383  0.61724084  0.86212866    -0.00520
C182        C  0.86649112  0.33327106  0.14737490    -0.00520
C183        C  0.83956978  0.33271612  0.11386616    -0.00520
N184        N  0.05937496  0.53706588  0.18820080    -0.07210
N185        N  0.08737381  0.55391275  0.16221599    -0.59330
N186        N  0.03719511  0.56424466  0.28912906    -0.06890
N187        N  0.05248651  0.59355653  0.31562675    -0.61450
N188        N  0.06544008  0.53497478  0.28197365    -0.06480
N189        N  0.09894638  0.54335165  0.30291877    -0.59300
N190        N  0.02785486  0.56323963  0.19258084    -0.06160
N191        N  0.03211759  0.59573616  0.16758762    -0.61810
C192        C  0.06954389  0.59072864  0.14915552     0.94970
C193        C  0.09154940  0.57906417  0.32463753     0.94750
N194        N  0.90691158  0.53033775  0.29316054    -0.07390
N195        N  0.87412425  0.53715973  0.31674701    -0.59900
N196        N  0.93477242  0.56000260  0.19907510    -0.05510
N197        N  0.92826104  0.59160089  0.17423980    -0.61160
N198        N  0.90405829  0.53240112  0.19733905    -0.07420
N199        N  0.87429417  0.54705136  0.17219801    -0.60170
N200        N  0.93262619  0.56289582  0.29434981    -0.05150
N201        N  0.91562586  0.59369041  0.31764736    -0.61240
Mn202      Mn  0.98331203  0.56330782  0.24508024     1.18440
C203        C  0.87906618  0.57648050  0.33213210     0.97050
C204        C  0.89079487  0.58414502  0.15732863     0.97720
N205        N  0.07173012  0.43632675  0.28393547    -0.07440
N206        N  0.10551588  0.42954288  0.30643165    -0.63750
N207        N  0.02867367  0.40608631  0.19269332    -0.06240
N208        N  0.02997422  0.37450004  0.16633570    -0.64420
N209        N  0.06096446  0.43136552  0.18846980    -0.06950
N210        N  0.08737813  0.41403317  0.16115990    -0.64010
N211        N  0.04358884  0.40650433  0.29044240    -0.05840
N212        N  0.05863897  0.37868241  0.31786453    -0.64700
Mn213      Mn  0.06538195  0.48492143  0.23473535     1.10660
C214        C  0.09760364  0.39365854  0.32796617     0.98280
C215        C  0.06693257  0.37827859  0.14745811     0.98350
N216        N  0.90568726  0.42684524  0.19866334    -0.06950
N217        N  0.87477025  0.40979744  0.17602006    -0.62330
N218        N  0.94034718  0.40306291  0.29578229    -0.06270
N219        N  0.92522900  0.37399781  0.32216814    -0.59060
N220        N  0.91481606  0.43519208  0.29430525    -0.07580
N221        N  0.88518172  0.43044901  0.32107219    -0.61890
N222        N  0.93735868  0.40071444  0.19907709    -0.06570
N223        N  0.93015478  0.36795937  0.17452147    -0.59080
Mn224      Mn  0.90729713  0.48089837  0.24490539     1.20190
Mn225      Mn  0.98786673  0.40321708  0.24570432     1.10090
Cl226      Cl  0.98603086  0.48317574  0.24298263    -0.87050
C227        C  0.89081358  0.37277559  0.16047908     0.95280
C228        C  0.88993097  0.39248312  0.33798122     0.95080
N229        N  0.41343391  0.18299728  0.95152747    -0.07210
N230        N  0.38124543  0.17599681  0.92750982    -0.59330
N231        N  0.43802406  0.15491638  0.04910756    -0.06890
N232        N  0.42409981  0.12870997  0.07854543    -0.61450
N233        N  0.41478144  0.18903781  0.04832741    -0.06480
N234        N  0.38703446  0.18784570  0.07811442    -0.59300
N235        N  0.43713332  0.14912578  0.95311897    -0.06160
N236        N  0.41924814  0.11783631  0.93092095    -0.61810
C237        C  0.38419839  0.13568153  0.91432099     0.94970
C238        C  0.39187012  0.15010934  0.09676490     0.94750
N239        N  0.56223570  0.18716428  0.05258140    -0.07390
N240        N  0.59177678  0.18202546  0.08036904    -0.59900
N241        N  0.54106840  0.14973969  0.95415391    -0.05510
N242        N  0.55648282  0.12026221  0.92827158    -0.61160
N243        N  0.56749270  0.18175417  0.95655165    -0.07420
N244        N  0.60014184  0.17487677  0.93298365    -0.60170
N245        N  0.53763598  0.15366380  0.05124559    -0.05150
N246        N  0.55166363  0.12448393  0.07750922    -0.61240
Mn247      Mn  0.48841279  0.14952906  0.00138530     1.18440
C248        C  0.58584184  0.14271087  0.09578084     0.97050
C249        C  0.59346796  0.13718664  0.91454248     0.97720
N250        N  0.40868783  0.28677265  0.04101981    -0.07440
N251        N  0.37837833  0.29339770  0.06785725    -0.63750
N252        N  0.43940242  0.31316798  0.94705359    -0.06240
N253        N  0.42913946  0.34107764  0.91817011    -0.64420
N254        N  0.41082022  0.28320649  0.94918068    -0.06950
N255        N  0.38001697  0.29081900  0.92329042    -0.64010
N256        N  0.43568477  0.31817618  0.04129859    -0.05840
N257        N  0.42399178  0.34717199  0.06896640    -0.64700
Mn258      Mn  0.41212446  0.23479645  0.99736053     1.10660
C259        C  0.38788479  0.33115341  0.08522325     0.98280
C260        C  0.39174939  0.32675231  0.90384433     0.98350
N261        N  0.56700521  0.28012076  0.95156512    -0.06950
N262        N  0.59310702  0.28149925  0.91973125    -0.62330
N263        N  0.53708591  0.31602935  0.04659938    -0.06270
N264        N  0.54435912  0.34251576  0.07823557    -0.59060
N265        N  0.56493555  0.28561612  0.04677363    -0.07580
N266        N  0.59175253  0.29091802  0.07739681    -0.61890
N267        N  0.53924236  0.31055338  0.94909157    -0.06570
N268        N  0.54593268  0.33327730  0.91519985    -0.59080
Mn269      Mn  0.56573366  0.23370658  0.00196108     1.20190
Mn270      Mn  0.48843802  0.31607220  0.99609336     1.10090
Cl271      Cl  0.48871052  0.23344622  0.99867005    -0.87050
C272        C  0.57969433  0.31479325  0.89745362     0.95280
C273        C  0.57919150  0.32663261  0.09659303     0.95080
N274        N  0.41902638  0.92977576  0.78854718    -0.07210
N275        N  0.39333969  0.89750495  0.79080509    -0.59330
N276        N  0.43460859  0.02981857  0.82777589    -0.06890
N277        N  0.41844516  0.05189594  0.85948794    -0.61450
N278        N  0.40883382  0.02978762  0.79586701    -0.06480
N279        N  0.37596703  0.05285237  0.80497004    -0.59300
N280        N  0.44084601  0.93332455  0.82299540    -0.06160
N281        N  0.42646886  0.90610518  0.85104205    -0.61810
C282        C  0.39585035  0.88420251  0.83055360     0.94970
C283        C  0.38171779  0.06672413  0.84440820     0.94750
N284        N  0.55672348  0.04225841  0.79008068    -0.07390
N285        N  0.58457328  0.07255977  0.79533692    -0.59900
N286        N  0.54034622  0.93971851  0.82466970    -0.05510
N287        N  0.55384232  0.91195079  0.85275315    -0.61160
N288        N  0.56684716  0.94247418  0.79343991    -0.07420
N289        N  0.59790681  0.91624050  0.79947894    -0.60170
N290        N  0.53512352  0.03691955  0.82459559    -0.05150
N291        N  0.55134727  0.06076055  0.85491483    -0.61240
Mn292      Mn  0.48774562  0.98494838  0.82687761     1.18440
C293        C  0.58295882  0.08278922  0.83636955     0.97050
C294        C  0.58974760  0.89670447  0.83585938     0.97720
N295        N  0.40709697  0.03146439  0.69566804    -0.07440
N296        N  0.37911478  0.06151875  0.69023302    -0.63750
N297        N  0.43651199  0.93287596  0.66482197    -0.06240
N298        N  0.42931827  0.89955011  0.64026342    -0.64420
N299        N  0.40878791  0.93413297  0.69483440    -0.06950
N300        N  0.38210454  0.90235010  0.69154150    -0.64010
N301        N  0.43437108  0.03154988  0.66492954    -0.05840
N302        N  0.42561768  0.06188059  0.63803351    -0.64700
Mn303      Mn  0.41031127  0.98191632  0.74413650     1.10660
C304        C  0.39101073  0.08022561  0.65418658     0.98280
C305        C  0.39506625  0.88086214  0.65749781     0.98350
N306        N  0.56692215  0.94239474  0.69096880    -0.06950
N307        N  0.59532332  0.91308868  0.68308022    -0.62330
N308        N  0.53447982  0.03224311  0.66247629    -0.06270
N309        N  0.54492767  0.05836281  0.63233244    -0.59060
N310        N  0.56106073  0.03597936  0.69340520    -0.07580
N311        N  0.58920103  0.06533070  0.68581225    -0.61890
N312        N  0.53578866  0.93839571  0.66439669    -0.06570
N313        N  0.54139185  0.90576285  0.63926553    -0.59080
Mn314      Mn  0.56373368  0.99072056  0.74262466     1.20190
Mn315      Mn  0.48499673  0.98365223  0.66310059     1.10090
Cl316      Cl  0.48697313  0.98544830  0.74416201    -0.87050
C317        C  0.57838842  0.89008394  0.65132029     0.95280
C318        C  0.57883027  0.07899018  0.64766911     0.95080
C319        C  0.35504337  0.87381145  0.85039148    -0.00520
C320        C  0.35104671  0.84704911  0.88387614    -0.00520
C321        C  0.62906909  0.11479076  0.89281216    -0.00520
C322        C  0.62427974  0.09032062  0.85749479    -0.00520
C323        C  0.62372997  0.83853346  0.88058114    -0.00520
C324        C  0.62479295  0.87563524  0.85805837    -0.00520
N325        N  0.43578305  0.81071254  0.94605736    -0.07210
N326        N  0.42205209  0.84000602  0.91969394    -0.59330
N327        N  0.41464373  0.77760901  0.04601658    -0.06890
N328        N  0.38731527  0.78023884  0.07591701    -0.61450
N329        N  0.43460328  0.81363886  0.04213384    -0.06480
N330        N  0.41630434  0.84278992  0.06671464    -0.59300
N331        N  0.40918663  0.77881802  0.94730360    -0.06160
N332        N  0.37817581  0.78521866  0.92138189    -0.61810
C333        C  0.38609559  0.82311177  0.90380598     0.94970
C334        C  0.38562429  0.82079991  0.08768368     0.94750
N335        N  0.42800712  0.64719530  0.04147492    -0.07390
N336        N  0.41404064  0.61804756  0.06720212    -0.59900
N337        N  0.40362545  0.67852776  0.94866185    -0.05510
N338        N  0.37438754  0.67161635  0.92024834    -0.61160
N339        N  0.42870210  0.64578649  0.95078663    -0.07420
N340        N  0.41520569  0.61514731  0.92599472    -0.60170
N341        N  0.40420883  0.68074634  0.04382962    -0.05150
N342        N  0.37576485  0.67628241  0.07342425    -0.61240
Mn343      Mn  0.40789534  0.72968790  0.99621071     1.18440
C344        C  0.38240199  0.63687269  0.08808845     0.97050
C345        C  0.38186363  0.63170928  0.90621768     0.97720
N346        N  0.53638961  0.80907663  0.04329342    -0.07440
N347        N  0.55110445  0.83812308  0.07006786    -0.63750
N348        N  0.56231823  0.77383060  0.94678806    -0.06240
N349        N  0.59226667  0.77807832  0.91891759    -0.64420
N350        N  0.53787010  0.80732501  0.94598867    -0.06950
N351        N  0.55245538  0.83532467  0.91828496    -0.64010
N352        N  0.55992376  0.77502123  0.04457255    -0.05840
N353        N  0.58938504  0.77989571  0.07243131    -0.64700
Mn354      Mn  0.48640856  0.81233378  0.99411435     1.10660
C355        C  0.58433823  0.81902185  0.08863564     0.98280
C356        C  0.58652865  0.81634102  0.90078125     0.98350
N357        N  0.53222605  0.64313097  0.94975655    -0.06950
N358        N  0.54122735  0.61482436  0.92040627    -0.62330
N359        N  0.55940583  0.67354271  0.04643843    -0.06270
N360        N  0.58631749  0.66536558  0.07691027    -0.59060
N361        N  0.53037622  0.64381341  0.04501916    -0.07580
N362        N  0.53760278  0.61486055  0.07379024    -0.61890
N363        N  0.56096044  0.67311336  0.95030248    -0.06570
N364        N  0.58931164  0.66617129  0.92120250    -0.59080
Mn365      Mn  0.48019817  0.64414041  0.99653467     1.20190
Mn366      Mn  0.56120092  0.72427772  0.99712104     1.10090
Cl367      Cl  0.48405370  0.72736581  0.99551571    -0.87050
C368        C  0.57678633  0.62970392  0.90267830     0.95280
C369        C  0.57251724  0.62828521  0.09368625     0.95080
C370        C  0.34400385  0.87364271  0.13034337    -0.00520
C371        C  0.34416103  0.83760594  0.10543486    -0.00520
C372        C  0.34480591  0.08130555  0.86946636    -0.00520
C373        C  0.34511943  0.11326013  0.89887198    -0.00520
C374        C  0.62095293  0.84114283  0.10929168    -0.00520
C375        C  0.61774338  0.87157164  0.13893719    -0.00520
N376        N  0.43284454  0.93467550  0.16573449    -0.07210
N377        N  0.41677209  0.91085973  0.13484075    -0.59330
N378        N  0.41024672  0.03009773  0.20488923    -0.06890
N379        N  0.38045045  0.05782747  0.20106628    -0.61450
N380        N  0.43555646  0.03173301  0.17253316    -0.06480
N381        N  0.42159295  0.06011117  0.14527904    -0.59300
N382        N  0.40909560  0.93205132  0.19900833    -0.06160
N383        N  0.37877346  0.90530481  0.19205386    -0.61810
C384        C  0.38252273  0.89191511  0.15225901     0.94970
C385        C  0.38712221  0.07676650  0.16417530     0.94750
N386        N  0.43396615  0.02380247  0.33264123    -0.07390
N387        N  0.42711687  0.05408647  0.36047627    -0.59900
N388        N  0.40573049  0.92774839  0.29731767    -0.05510
N389        N  0.37861584  0.89632828  0.30058484    -0.61160
N390        N  0.43338257  0.92606320  0.32744218    -0.07420
N391        N  0.42597961  0.89292882  0.35152294    -0.60170
N392        N  0.40624816  0.02521473  0.30259850    -0.05150
N393        N  0.37991289  0.05657291  0.30929081    -0.61240
Mn394      Mn  0.40728347  0.97873177  0.25076157     1.18440
C395        C  0.39289812  0.07389722  0.34582727     0.97050
C396        C  0.39177048  0.87458104  0.33415428     0.97720
N397        N  0.53740987  0.02884742  0.17312255    -0.07440
N398        N  0.55293178  0.05567122  0.14494211    -0.63750
N399        N  0.55556399  0.92707863  0.20470003    -0.06240
N400        N  0.58265381  0.89649253  0.20034583    -0.64420
N401        N  0.53254791  0.93048257  0.17095893    -0.06950
N402        N  0.54613185  0.90350145  0.14198963    -0.64010
N403        N  0.56312805  0.02607249  0.20499255    -0.05840
N404        N  0.59542540  0.05114560  0.19926318    -0.64700
Mn405      Mn  0.48487252  0.98189729  0.16835280     1.10660
C406        C  0.58926995  0.07012806  0.16213771     0.98280
C407        C  0.57812007  0.88263306  0.16075912     0.98350
N408        N  0.53119954  0.92656860  0.33013049    -0.06950
N409        N  0.53878616  0.89599916  0.35696003    -0.62330
N410        N  0.56255849  0.02246518  0.30439530    -0.06270
N411        N  0.59077107  0.05206791  0.31160090    -0.59060
N412        N  0.53279720  0.02397813  0.33263516    -0.07580
N413        N  0.53932307  0.05605796  0.35870042    -0.61890
N414        N  0.55995938  0.92743005  0.30103294    -0.06570
N415        N  0.58822554  0.89814864  0.30756069    -0.59080
Mn416      Mn  0.48268727  0.97521610  0.33185743     1.20190
Mn417      Mn  0.56096250  0.97589905  0.25331005     1.10090
Cl418      Cl  0.48399040  0.97866113  0.25084747    -0.87050
C419        C  0.57458458  0.87885064  0.34244249     0.95280
C420        C  0.57576333  0.07315240  0.34521115     0.95080
N421        N  0.32214478  0.93050973  0.44473446    -0.07210
N422        N  0.34737275  0.89871687  0.43608055    -0.59330
N423        N  0.29301922  0.03012342  0.42537909    -0.06890
N424        N  0.29897935  0.06263516  0.40047881    -0.61450
N425        N  0.32305134  0.02765886  0.45312986    -0.06480
N426        N  0.35023738  0.05885625  0.44764550    -0.59300
N427        N  0.29305090  0.93354260  0.41603659    -0.06160
N428        N  0.29821236  0.90398220  0.38707144    -0.61810
C429        C  0.33262435  0.88291327  0.39961469     0.94970
C430        C  0.33463784  0.08021338  0.41466532     0.94750
N431        N  0.16257035  0.02849174  0.45070464    -0.07390
N432        N  0.13232259  0.05398408  0.43742939    -0.59900
N433        N  0.19447343  0.93388040  0.41620477    -0.05510
N434        N  0.18775737  0.91083176  0.38261244    -0.61160
N435        N  0.16316251  0.93005911  0.44261458    -0.07420
N436        N  0.13418362  0.90432075  0.42628124    -0.60170
N437        N  0.19511678  0.03213381  0.42583763    -0.05150
N438        N  0.18811329  0.06091569  0.39711179    -0.61240
Mn439      Mn  0.24381570  0.98249252  0.42044602     1.18440
C440        C  0.14858203  0.07449567  0.40351488     0.97050
C441        C  0.15048717  0.89197073  0.38872037     0.97720
N442        N  0.32340664  0.01819691  0.55190497    -0.07440
N443        N  0.34660564  0.05218852  0.55850656    -0.63750
N444        N  0.29357964  0.92182037  0.57265993    -0.06240
N445        N  0.30116676  0.89352433  0.60146937    -0.64420
N446        N  0.32325864  0.92231767  0.54436719    -0.06950
N447        N  0.35162739  0.89334386  0.55320930    -0.64010
N448        N  0.29448281  0.01498625  0.58089266    -0.05840
N449        N  0.29780667  0.04602696  0.60839500    -0.64700
Mn450      Mn  0.32419937  0.97453400  0.49821802     1.10660
C451        C  0.33020126  0.06897956  0.59377449     0.98280
C452        C  0.33739250  0.87613546  0.58930243     0.98350
N453        N  0.16432009  0.92139673  0.54546453    -0.06950
N454        N  0.13543710  0.89506200  0.56080230    -0.62330
N455        N  0.19462490  0.01768418  0.57824133    -0.06270
N456        N  0.18942273  0.04477009  0.60912341    -0.59060
N457        N  0.16358783  0.02083811  0.55159528    -0.07580
N458        N  0.13653188  0.05008452  0.56490903    -0.61890
N459        N  0.19794152  0.91875323  0.56872688    -0.06570
N460        N  0.19370148  0.88963595  0.59741052    -0.59080
Mn461      Mn  0.16138462  0.97492336  0.49778462     1.20190
Mn462      Mn  0.24446306  0.96851308  0.57532502     1.10090
Cl463      Cl  0.24345800  0.97510190  0.49788758    -0.87050
C464        C  0.15443709  0.87523399  0.59366526     0.95280
C465        C  0.15352367  0.06551344  0.60103045     0.95080
N466        N  0.03750804  0.31704062  0.44492443    -0.07210
N467        N  0.06580816  0.34564107  0.43351029    -0.59330
N468        N  0.94325238  0.28417244  0.41825851    -0.06890
N469        N  0.91535174  0.29184190  0.38898729    -0.61450
N470        N  0.94251002  0.31428384  0.44690668    -0.06480
N471        N  0.91324116  0.34219280  0.43837032    -0.59300
N472        N  0.03557265  0.28683188  0.41657794    -0.06160
N473        N  0.06113387  0.29478469  0.38515917    -0.61810
C474        C  0.08038985  0.33157224  0.39577564     0.94970
C475        C  0.89674376  0.32819623  0.40191102     0.94750
N476        N  0.94238147  0.15044966  0.44948861    -0.07390
N477        N  0.91807740  0.11919965  0.43465393    -0.59900
N478        N  0.04281293  0.18735278  0.42893677    -0.05510
N479        N  0.07224383  0.18057371  0.40099914    -0.61160
N480        N  0.03758880  0.15334834  0.45196837    -0.07420
N481        N  0.06069721  0.12194768  0.43733038    -0.60170
N482        N  0.94416675  0.18171331  0.42243461    -0.05150
N483        N  0.92057842  0.17264412  0.39017694    -0.61240
Mn484      Mn  0.99135746  0.23412771  0.42119918     1.18440
C485        C  0.90372886  0.13409057  0.39751244     0.97050
C486        C  0.08169412  0.13898201  0.40468569     0.97720
N487        N  0.94053185  0.31416256  0.54636956    -0.07440
N488        N  0.90750559  0.33885128  0.55150697    -0.63750
N489        N  0.03681127  0.28621011  0.57594016    -0.06240
N490        N  0.06629682  0.29208350  0.60396058    -0.64420
N491        N  0.03830333  0.31581069  0.54721737    -0.06950
N492        N  0.06960009  0.34235155  0.55517069    -0.64010
N493        N  0.94105590  0.28470056  0.57532793    -0.05840
N494        N  0.90898041  0.28921973  0.60084275    -0.64700
Mn495      Mn  0.99005155  0.31660473  0.49695496     1.10660
C496        C  0.88795167  0.32275493  0.58554516     0.98280
C497        C  0.08636505  0.32718147  0.59098152     0.98350
N498        N  0.03891406  0.15384666  0.54991407    -0.06950
N499        N  0.06669089  0.12500328  0.56166956    -0.62330
N500        N  0.94246764  0.18402915  0.57925530    -0.06270
N501        N  0.91788104  0.17667328  0.61140175    -0.59060
N502        N  0.94105840  0.15190970  0.55279909    -0.07580
N503        N  0.91539229  0.12191977  0.56751080    -0.61890
N504        N  0.04046212  0.18688240  0.57507963    -0.06570
N505        N  0.07010728  0.18166927  0.60294291    -0.59080
Mn506      Mn  0.98922410  0.15088710  0.50100561     1.20190
Mn507      Mn  0.99011112  0.23554250  0.57700163     1.10090
Cl508      Cl  0.98965670  0.23449137  0.49896905    -0.87050
C509        C  0.08627091  0.14255981  0.59542677     0.95280
C510        C  0.90034491  0.13822529  0.60420078     0.95080
C511        C  0.88606810  0.10880831  0.36119950    -0.00520
C512        C  0.85771372  0.07599408  0.36149811    -0.00520
N513        N  0.78318733  0.02564071  0.42395558    -0.07210
N514        N  0.79269583  0.04956943  0.39197106    -0.59330
N515        N  0.80841096  0.92747348  0.45229245    -0.06890
N516        N  0.83573573  0.89967857  0.43736067    -0.61450
N517        N  0.77400911  0.92560974  0.43016138    -0.06480
N518        N  0.77552957  0.89399231  0.40351464    -0.59300
N519        N  0.81505936  0.02403531  0.44956384    -0.06160
N520        N  0.84722586  0.04587497  0.43423222    -0.61810
C521        C  0.83237077  0.06233743  0.39817507     0.94970
C522        C  0.81477602  0.87911208  0.40610913     0.94750
N523        N  0.77839702  0.93262979  0.57785052    -0.07390
N524        N  0.78486432  0.90739365  0.60943545    -0.59900
N525        N  0.81069558  0.02933006  0.54880531    -0.05510
N526        N  0.83997043  0.05632140  0.56198617    -0.61160
N527        N  0.77752409  0.03202508  0.57292811    -0.07420
N528        N  0.78285613  0.06237010  0.60067659    -0.60170
N529        N  0.81050145  0.93145590  0.55232340    -0.05150
N530        N  0.83985322  0.90587737  0.56726610    -0.61240
Mn531      Mn  0.81307176  0.97798147  0.50079553     1.18440
C532        C  0.82297783  0.89050880  0.60314011     0.97050
C533        C  0.82242710  0.07675228  0.59520089     0.97720
N534        N  0.67947384  0.93432443  0.42019558    -0.07440
N535        N  0.67361734  0.90498471  0.39135410    -0.63750
N536        N  0.65262577  0.02989334  0.44936459    -0.06240
N537        N  0.62485835  0.05902709  0.44015983    -0.64420
N538        N  0.68331312  0.03012697  0.42203123    -0.06950
N539        N  0.67699524  0.05958486  0.39364567    -0.64010
N540        N  0.64842913  0.93496019  0.44676871    -0.05840
N541        N  0.61992180  0.90658958  0.43590775    -0.64700
Mn542      Mn  0.73065477  0.97934952  0.42356100     1.10660
C543        C  0.63627842  0.88799194  0.40121863     0.98280
C544        C  0.64017867  0.07697590  0.40513690     0.98350
N545        N  0.67946399  0.02907283  0.57671815    -0.06950
N546        N  0.67408039  0.06063799  0.60332828    -0.62330
N547        N  0.65015401  0.93102314  0.54738244    -0.06270
N548        N  0.62389430  0.89906431  0.55362181    -0.59060
N549        N  0.67940057  0.93129211  0.57627933    -0.07580
N550        N  0.67346109  0.89970438  0.60268547    -0.61890
N551        N  0.65071194  0.02969875  0.54764940    -0.06570
N552        N  0.62560623  0.06234822  0.55327536    -0.59080
Mn553      Mn  0.72884261  0.98124264  0.57696940     1.20190
Mn554      Mn  0.64935481  0.98118536  0.49820209     1.10090
Cl555      Cl  0.73049335  0.98010074  0.50003953    -0.87050
C556        C  0.64064078  0.08134145  0.58814623     0.95280
C557        C  0.63879393  0.87976935  0.58821139     0.95080
C558        C  0.87980361  0.84558889  0.63897221    -0.00520
C559        C  0.84563985  0.87149445  0.63953534    -0.00520
N560        N  0.06627946  0.77848508  0.54796310    -0.07210
N561        N  0.09745004  0.80134113  0.56438902    -0.59330
N562        N  0.03679065  0.67820248  0.57135713    -0.06890
N563        N  0.05151203  0.65189023  0.60021595    -0.61450
N564        N  0.06449688  0.68302210  0.54134466    -0.06480
N565        N  0.09705882  0.65949740  0.54832443    -0.59300
N566        N  0.03707723  0.77256191  0.57625550    -0.06160
N567        N  0.04732158  0.79078498  0.61126069    -0.61810
C568        C  0.08440678  0.80913133  0.60421465     0.94970
C569        C  0.08921814  0.63976986  0.58463826     0.94750
N570        N  0.90676860  0.68403994  0.54203164    -0.07390
N571        N  0.87588558  0.65697591  0.54580032    -0.59900
N572        N  0.94158228  0.77935281  0.57643503    -0.05510
N573        N  0.93829725  0.80702052  0.60709998    -0.61160
N574        N  0.91014434  0.78290512  0.55050185    -0.07420
N575        N  0.88345503  0.81180330  0.56529438    -0.60170
N576        N  0.93378834  0.67980306  0.57232040    -0.05150
N577        N  0.91988400  0.65068895  0.59900073    -0.61240
Mn578      Mn  0.98680225  0.72659459  0.57473135     1.18440
C579        C  0.88358359  0.63629478  0.58148536     0.97050
C580        C  0.90171507  0.82704831  0.60098017     0.97720
N581        N  0.06268178  0.68414193  0.44619294    -0.07440
N582        N  0.09394937  0.65845807  0.43942411    -0.63750
N583        N  0.03219719  0.78163858  0.41753770    -0.06240
N584        N  0.03675002  0.80777194  0.38641400    -0.64420
N585        N  0.06380951  0.78415760  0.44346476    -0.06950
N586        N  0.09186253  0.81175569  0.42817823    -0.64010
N587        N  0.03703439  0.68416517  0.41427985    -0.05840
N588        N  0.05323514  0.66062571  0.38346711    -0.64700
Mn589      Mn  0.06509629  0.73359686  0.49438571     1.10660
C590        C  0.08902297  0.64428341  0.40004466     0.98280
C591        C  0.07392531  0.82657345  0.39222064     0.98350
N592        N  0.90791277  0.78365569  0.44797964    -0.06950
N593        N  0.87749342  0.80841543  0.43423397    -0.62330
N594        N  0.93327447  0.68489118  0.41666690    -0.06270
N595        N  0.91731846  0.65980509  0.38687833    -0.59060
N596        N  0.90737394  0.68667514  0.44843288    -0.07580
N597        N  0.87571774  0.66128877  0.44233529    -0.61890
N598        N  0.93827403  0.78230383  0.42044295    -0.06570
N599        N  0.93063411  0.80791726  0.38955114    -0.59080
Mn600      Mn  0.90724374  0.73523558  0.49743424     1.20190
Mn601      Mn  0.98522926  0.73231553  0.41642044     1.10090
Cl602      Cl  0.98621716  0.73200817  0.49580170    -0.87050
C603        C  0.89250749  0.82371531  0.39755940     0.95280
C604        C  0.88122499  0.64461865  0.40394261     0.95080
C605        C  0.86756380  0.83991413  0.36173738    -0.00520
C606        C  0.83443217  0.86713863  0.36532427    -0.00520
C607        C  0.13327931  0.86454514  0.63423834    -0.00520
C608        C  0.10520383  0.83254142  0.63933051    -0.00520
C609        C  0.87906200  0.11392747  0.63938688    -0.00520
C610        C  0.84603954  0.08661374  0.63462333    -0.00520
C611        C  0.12729565  0.87342900  0.35202361    -0.00520
C612        C  0.09410013  0.84612226  0.35419987    -0.00520
C613        C  0.08927755  0.11365435  0.36570641    -0.00520
C614        C  0.12305127  0.08675297  0.36521655    -0.00520
C615        C  0.09938582  0.11749334  0.63325363    -0.00520
C616        C  0.13091803  0.08815963  0.63624950    -0.00520
C617        C  0.35294211  0.83707919  0.60883058    -0.00520
C618        C  0.37667458  0.83909137  0.64446857    -0.00520
C619        C  0.12511893  0.34293898  0.61162614    -0.00520
C620        C  0.12321448  0.36447564  0.64879734    -0.00520
C621        C  0.85155078  0.37190504  0.35702056    -0.00520
C622        C  0.85477474  0.34169365  0.38721763    -0.00520
C623        C  0.35317271  0.11866195  0.39620988    -0.00520
C624        C  0.37829110  0.11541546  0.36194639    -0.00520
C625        C  0.34408375  0.84024005  0.38358427    -0.00520
C626        C  0.37105316  0.83549366  0.35018529    -0.00520
C627        C  0.12435498  0.33984764  0.38151399    -0.00520
C628        C  0.13200316  0.37098170  0.35233233    -0.00520
C629        C  0.33821246  0.11267327  0.60722990    -0.00520
C630        C  0.36973241  0.11787804  0.63588962    -0.00520
C631        C  0.85257437  0.36695113  0.63985807    -0.00520
C632        C  0.84920671  0.34081182  0.60569800    -0.00520
C633        C  0.35337568  0.13039075  0.11484185    -0.00520
C634        C  0.35109855  0.09832250  0.14362371    -0.00520
C635        C  0.62425898  0.11886698  0.10820535    -0.00520
C636        C  0.62596623  0.08927657  0.13904773    -0.00520
C637        C  0.33849299  0.36840134  0.86540163    -0.00520
C638        C  0.37160081  0.34087651  0.86421930    -0.00520
C639        C  0.59868091  0.32849163  0.85781605    -0.00520
C640        C  0.62659867  0.36095692  0.85793021    -0.00520
C641        C  0.62525510  0.84403382  0.38838922    -0.00520
C642        C  0.59382895  0.84002701  0.35930597    -0.00520
C643        C  0.59180619  0.11573139  0.35805451    -0.00520
C644        C  0.62323361  0.11640432  0.38695371    -0.00520
C645        C  0.62911908  0.59092292  0.86049205    -0.00520
C646        C  0.59418711  0.61509211  0.86187806    -0.00520
C647        C  0.09213959  0.62965638  0.13346814    -0.00520
C648        C  0.12144157  0.62763906  0.10220135    -0.00520
C649        C  0.11683787  0.33506628  0.10415601    -0.00520
C650        C  0.08609361  0.33777773  0.13344222    -0.00520
C651        C  0.34061293  0.58637409  0.85804906    -0.00520
C652        C  0.37028793  0.61711469  0.86314598    -0.00520
C653        C  0.12828029  0.59962953  0.34687648    -0.00520
C654        C  0.12789777  0.63070562  0.37690775    -0.00520
C655        C  0.84132562  0.59887223  0.34967984    -0.00520
C656        C  0.84306641  0.62812577  0.38178876    -0.00520
C657        C  0.84754151  0.61587998  0.60377296    -0.00520
C658        C  0.85216714  0.58331248  0.63108877    -0.00520
C659        C  0.62492922  0.12245771  0.60545604    -0.00520
C660        C  0.59255763  0.12088427  0.63291657    -0.00520
C661        C  0.61916887  0.84173586  0.60837898    -0.00520
C662        C  0.59090329  0.84643525  0.64032972    -0.00520
C663        C  0.12429050  0.61734804  0.60617309    -0.00520
C664        C  0.12128188  0.58966589  0.63843310    -0.00520
C665        C  0.98150389  0.73734332  0.78480196    -0.00520
C666        C  0.98269274  0.76858948  0.75466580    -0.00520
C667        C  0.76622160  0.97289692  0.75160305    -0.00520
C668        C  0.74628195  0.97809464  0.78937940    -0.00520
C669        C  0.73332261  0.76965768  0.00080295    -0.00520
C670        C  0.76484645  0.74004962  0.00092415    -0.00520
C671        C  0.48127220  0.72414837  0.71897584    -0.00520
C672        C  0.48634716  0.69684005  0.75093367    -0.00520
C673        C  0.71375529  0.48209644  0.75899403    -0.00520
C674        C  0.74588672  0.48098775  0.73093585    -0.00520
C675        C  0.69870743  0.72627953  0.50564986    -0.00520
C676        C  0.73294083  0.70053558  0.50619314    -0.00520
C677        C  0.59635378  0.33935435  0.13790436    -0.00520
C678        C  0.63243874  0.36233229  0.14191130    -0.00520
C679        C  0.58735855  0.60946611  0.13421022    -0.00520
C680        C  0.62070460  0.58249111  0.13707099    -0.00520
C681        C  0.33835117  0.59321502  0.13494977    -0.00520
C682        C  0.36912800  0.62307333  0.13066311    -0.00520
C683        C  0.34474204  0.37189442  0.13350537    -0.00520
C684        C  0.37388791  0.34050724  0.12858021    -0.00520
C685        C  0.55945488  0.77048213  0.64346335    -0.10240
C686        C  0.56718522  0.81078683  0.66246819     0.05950
C687        C  0.54785324  0.81710350  0.70225358    -0.04010
C688        C  0.52314754  0.78647819  0.71958812    -0.08460
C689        C  0.51681390  0.74757310  0.70148921     0.05070
C690        C  0.53546199  0.73886099  0.66305571    -0.03480
Br691      Br  0.52659915  0.68562660  0.63537975    -0.03180
H692        H  0.56892563  0.76310279  0.61243620     0.08980
H693        H  0.50574540  0.79426173  0.74723557     0.07000
Br694      Br  0.54559694  0.86465688  0.73870430    -0.03610
C695        C  0.61374992  0.78536368  0.55346980    -0.10240
C696        C  0.63205032  0.80023595  0.59049697     0.05950
C697        C  0.66326690  0.77543824  0.60869810    -0.04010
C698        C  0.68516448  0.74621246  0.58367143    -0.08460
C699        C  0.67068956  0.73621931  0.54301084     0.05070
C700        C  0.62972261  0.74917896  0.53396966    -0.03480
Br701      Br  0.59622346  0.71763302  0.49543470    -0.03180
H702        H  0.58578477  0.80005860  0.54160178     0.08980
H703        H  0.71294093  0.73282774  0.59649971     0.07000
Br704      Br  0.67113682  0.77586664  0.66785411    -0.03610
C705        C  0.80715692  0.68221216  0.59552464    -0.10240
C706        C  0.80602802  0.63743723  0.59534481     0.05950
C707        C  0.76999006  0.61807701  0.57711618    -0.04010
C708        C  0.73918269  0.64329853  0.55909425    -0.08460
C709        C  0.74960979  0.68418672  0.54656296     0.05070
C710        C  0.78272979  0.70468939  0.56726436    -0.03480
Br711      Br  0.79861997  0.76152659  0.55495857    -0.03180
H712        H  0.83281059  0.69877575  0.61057754     0.08980
H713        H  0.71172426  0.62831904  0.54575625     0.07000
Br714      Br  0.76426340  0.56041872  0.56053879    -0.03610
C715        C  0.80366403  0.58114511  0.69065722    -0.10240
C716        C  0.81628041  0.56401219  0.65254818     0.05950
C717        C  0.80081442  0.52421026  0.64051521    -0.04010
C718        C  0.76742427  0.50695505  0.66223480    -0.08460
C719        C  0.76080275  0.51811249  0.70451920     0.05070
C720        C  0.78059171  0.55652820  0.71872702    -0.03480
Br721      Br  0.79167498  0.57412210  0.77472364    -0.03180
H722        H  0.81816730  0.61041367  0.70132693     0.08980
H723        H  0.75334313  0.47851523  0.64933480     0.07000
Br724      Br  0.82753456  0.48909644  0.59894505    -0.03610
C725        C  0.79428499  0.68655032  0.40172330    -0.10240
C726        C  0.80435312  0.64315910  0.40384452     0.05950
C727        C  0.78985142  0.62083596  0.43893863    -0.04010
C728        C  0.75985912  0.63862209  0.46487393    -0.08460
C729        C  0.75366695  0.68279933  0.46682567     0.05070
C730        C  0.77302082  0.70707966  0.43478150    -0.03480
Br731      Br  0.78111322  0.76721257  0.43792536    -0.03180
H732        H  0.80933196  0.70576736  0.37812370     0.08980
H733        H  0.74578609  0.61764580  0.48695232     0.07000
Br734      Br  0.81893630  0.57241957  0.46114319    -0.03610
C735        C  0.39078108  0.63487732  0.78526919    -0.10240
C736        C  0.39745366  0.63559915  0.82895974     0.05950
C737        C  0.43554082  0.65253241  0.84177369    -0.04010
C738        C  0.45436291  0.68354854  0.81858116    -0.08460
C739        C  0.45035899  0.68122958  0.77527686     0.05070
C740        C  0.41911537  0.65463870  0.75829456    -0.03480
Br741      Br  0.41813852  0.63723074  0.70090606    -0.03180
H742        H  0.36693746  0.61691518  0.77038568     0.08980
H743        H  0.48034428  0.70014662  0.83265100     0.07000
Br744      Br  0.47388348  0.61070253  0.85905406    -0.03610
C745        C  0.64391109  0.57535149  0.78166577    -0.10240
C746        C  0.65749238  0.58556905  0.82249495     0.05950
C747        C  0.69900756  0.57539491  0.83096839    -0.04010
C748        C  0.71526149  0.53860662  0.81307602    -0.08460
C749        C  0.69893759  0.52354418  0.77530490     0.05070
C750        C  0.66580932  0.54583408  0.75712988    -0.03480
Br751      Br  0.64610667  0.53262145  0.70202199    -0.03180
H752        H  0.61710330  0.58913474  0.76794580     0.08980
H753        H  0.74208745  0.52352581  0.82691168     0.07000
Br754      Br  0.73011531  0.60812036  0.87061406    -0.03610
C755        C  0.57849592  0.67963616  0.82184760    -0.10240
C756        C  0.57658654  0.63559318  0.82420627     0.05950
C757        C  0.55172838  0.61323526  0.79511299    -0.04010
C758        C  0.53025658  0.63526526  0.76417636    -0.08460
C759        C  0.52740185  0.67978428  0.76546053     0.05070
C760        C  0.55291888  0.70197062  0.79474172    -0.03480
Br761      Br  0.54690447  0.76018334  0.81047651    -0.03180
H762        H  0.59584869  0.69698292  0.84528102     0.08980
H763        H  0.51005135  0.61738111  0.74338053     0.07000
Br764      Br  0.54332499  0.55283888  0.79829591    -0.03610
C765        C  0.67487577  0.73910883  0.43025896    -0.10240
C766        C  0.68975155  0.75403474  0.46908867     0.05950
C767        C  0.68996752  0.79777408  0.47633796    -0.04010
C768        C  0.66780693  0.82386961  0.45071609    -0.08460
C769        C  0.64906286  0.81021453  0.41287362     0.05070
C770        C  0.65758243  0.76754652  0.40092347    -0.03480
Br771      Br  0.65655877  0.74828910  0.34443498    -0.03180
H772        H  0.67737909  0.70577601  0.42250080     0.08980
H773        H  0.66666984  0.85575601  0.46211587     0.07000
Br774      Br  0.71867453  0.82510465  0.52199462    -0.03610
C775        C  0.68405154  0.37370476  0.80874157    -0.10240
C776        C  0.64213312  0.38103682  0.81872353     0.05950
C777        C  0.62414987  0.41925501  0.80522727    -0.04010
C778        C  0.64694552  0.44697676  0.78029418    -0.08460
C779        C  0.69054845  0.44331474  0.77545878     0.05070
C780        C  0.70907598  0.40596434  0.79171191    -0.03480
Br781      Br  0.76684850  0.40029903  0.80484703    -0.03180
H782        H  0.69920244  0.34644988  0.82232158     0.08980
H783        H  0.63080950  0.47467579  0.76973015     0.07000
Br784      Br  0.57428467  0.44226023  0.83015918    -0.03610
C785        C  0.83545605  0.41968505  0.69655517    -0.10240
C786        C  0.81964540  0.38808085  0.66869242     0.05950
C787        C  0.77573874  0.37984525  0.67297116    -0.04010
C788        C  0.75038287  0.40871761  0.69547994    -0.08460
C789        C  0.76826591  0.44127027  0.71983278     0.05070
C790        C  0.81135187  0.44257814  0.72371194    -0.03480
Br791      Br  0.83994917  0.47821216  0.76348901    -0.03180
H792        H  0.86746969  0.42898056  0.69843054     0.08980
H793        H  0.71676458  0.40562945  0.69425336     0.07000
Br794      Br  0.74749872  0.32790718  0.66008319    -0.03610
C795        C  0.42330013  0.73690292  0.66969700    -0.10240
C796        C  0.44037044  0.74415370  0.70927702     0.05950
C797        C  0.42337713  0.77755870  0.73379128    -0.04010
C798        C  0.39818368  0.80770033  0.71427178    -0.08460
C799        C  0.38540649  0.80165249  0.67257825     0.05070
C800        C  0.38886270  0.76017608  0.65722369    -0.03480
Br801      Br  0.33948573  0.72673676  0.66288557    -0.03180
H802        H  0.43326706  0.71019118  0.65094177     0.08980
H803        H  0.39025926  0.83612143  0.73126676     0.07000
Br804      Br  0.43508529  0.78610347  0.79197252    -0.03610
C805        C  0.79986602  0.07827487  0.69847736    -0.10240
C806        C  0.82932457  0.06094667  0.67049086     0.05950
C807        C  0.82837219  0.01699500  0.66411065    -0.04010
C808        C  0.79649573  0.99307457  0.68155746    -0.08460
C809        C  0.77473331  0.00697569  0.71728721     0.05070
C810        C  0.77118145  0.05190364  0.72031931    -0.03480
Br811      Br  0.71646026  0.07629971  0.72009747    -0.03180
H812        H  0.79463384  0.11216093  0.69780234     0.08980
H813        H  0.79240519  0.96142147  0.66995236     0.07000
Br814      Br  0.86698720  0.98917908  0.62696267    -0.03610
C815        C  0.01106051  0.82101212  0.70135991    -0.10240
C816        C  0.02001539  0.79269862  0.73452531     0.05950
C817        C  0.06332378  0.78888351  0.74320202    -0.04010
C818        C  0.09233319  0.79919428  0.71139765    -0.08460
C819        C  0.08143581  0.82800061  0.67961740     0.05070
C820        C  0.04115654  0.84395413  0.68017682    -0.03480
Br821      Br  0.02354479  0.88642447  0.64097381    -0.03180
H822        H  0.98094534  0.82405672  0.68807344     0.08980
H823        H  0.12356785  0.78655308  0.71291298     0.07000
Br824      Br  0.08591663  0.78510621  0.79841617    -0.03610
C825        C  0.89368924  0.78045603  0.67910195    -0.10240
C826        C  0.89283685  0.82498943  0.67954608     0.05950
C827        C  0.91190101  0.84600240  0.71448175    -0.04010
C828        C  0.92704578  0.82148728  0.74734034    -0.08460
C829        C  0.94123047  0.78077717  0.73739566     0.05070
C830        C  0.92544751  0.76086133  0.70103972    -0.03480
Br831      Br  0.95952633  0.72480209  0.66688152    -0.03180
H832        H  0.88020693  0.76349949  0.65279269     0.08980
H833        H  0.94132339  0.83767967  0.77368765     0.07000
Br834      Br  0.94227542  0.89888148  0.71112401    -0.03610
C835        C  0.84841426  0.91556558  0.70449683    -0.10240
C836        C  0.82779310  0.88453467  0.68102390     0.05950
C837        C  0.78707512  0.87351020  0.69279906    -0.04010
C838        C  0.76546933  0.89995457  0.72074455    -0.08460
C839        C  0.78721572  0.93199366  0.74298477     0.05070
C840        C  0.83072727  0.93355242  0.73990842    -0.03480
Br841      Br  0.86286015  0.97433305  0.77120692    -0.03180
H842        H  0.87478118  0.93131669  0.69132974     0.08980
H843        H  0.73184888  0.89757682  0.72286204     0.07000
Br844      Br  0.75917803  0.82833867  0.66477740    -0.03610
C845        C  0.69287300  0.85092787  0.07579654    -0.10240
C846        C  0.66317023  0.82545800  0.09673935     0.05950
C847        C  0.67098945  0.78217465  0.09905118    -0.04010
C848        C  0.69197502  0.76373255  0.06612991    -0.08460
C849        C  0.71951760  0.78779247  0.04179294     0.05070
C850        C  0.72407388  0.83144078  0.05149321    -0.03480
Br851      Br  0.76490931  0.86617479  0.02418763    -0.03180
H852        H  0.68996125  0.88508385  0.07552871     0.08980
H853        H  0.68179706  0.73262020  0.05677248     0.07000
Br854      Br  0.64682573  0.74740485  0.14127665    -0.03610
C855        C  0.69509112  0.87821527  0.82167542    -0.10240
C856        C  0.66633367  0.89674724  0.84929737     0.05950
C857        C  0.67828057  0.93455023  0.86988437    -0.04010
C858        C  0.71540630  0.95535438  0.85847108    -0.08460
C859        C  0.73736232  0.94284715  0.82200401     0.05070
C860        C  0.73238950  0.89942999  0.81134498    -0.03480
Br861      Br  0.78031969  0.86315365  0.81187259    -0.03180
H862        H  0.69016180  0.84592266  0.81104253     0.08980
H863        H  0.72169397  0.98603854  0.87251345     0.07000
Br864      Br  0.64316062  0.96112636  0.91089535    -0.03610
C865        C  0.67893627  0.84714649  0.93156281    -0.10240
C866        C  0.66435902  0.82348046  0.89793289     0.05950
C867        C  0.67858955  0.78131606  0.89342585    -0.04010
C868        C  0.70126864  0.76251129  0.92618690    -0.08460
C869        C  0.70905736  0.78563951  0.96333636     0.05070
C870        C  0.68829334  0.82488866  0.96680417    -0.03480
Br871      Br  0.63828906  0.82691130  0.99920268    -0.03180
H872        H  0.66632030  0.87848047  0.93649178     0.08980
H873        H  0.70970759  0.72956812  0.92342616     0.07000
Br874      Br  0.66723320  0.74944659  0.84385170    -0.03610
C875        C  0.73178280  0.05252003  0.81524432    -0.10240
C876        C  0.71906562  0.01499614  0.79521088     0.05950
C877        C  0.67682332  0.00639878  0.79177764    -0.04010
C878        C  0.65011632  0.02533357  0.82010586    -0.08460
C879        C  0.66004041  0.06549798  0.83755163     0.05070
C880        C  0.70106786  0.08108985  0.82909299    -0.03480
Br881      Br  0.71291998  0.13910732  0.81677328    -0.03180
H882        H  0.76434831  0.06172360  0.81467232     0.08980
H883        H  0.62021793  0.01035161  0.82504458     0.07000
Br884      Br  0.65731238  0.96767226  0.74985270    -0.03610
C885        C  0.01566501  0.70886022  0.84853438    -0.10240
C886        C  0.01782862  0.71590500  0.80501692     0.05950
C887        C  0.04894843  0.69371921  0.78251315    -0.04010
C888        C  0.07752302  0.66896196  0.80441467    -0.08460
C889        C  0.06923618  0.65635421  0.84547465     0.05070
C890        C  0.03571430  0.67467899  0.86641017    -0.03480
Br891      Br  0.01540261  0.65263673  0.91858625    -0.03180
H892        H  0.99551185  0.72671726  0.86858313     0.08980
H893        H  0.10245595  0.65399431  0.78790177     0.07000
Br894      Br  0.05213000  0.69099077  0.72274867    -0.03610
C895        C  0.82697597  0.65737912  0.95321574    -0.10240
C896        C  0.82489897  0.65797510  0.90958347     0.05950
C897        C  0.80477837  0.69493797  0.89315343    -0.04010
C898        C  0.78907180  0.72638670  0.92179675    -0.08460
C899        C  0.78131831  0.71461362  0.96394767     0.05070
C900        C  0.79335983  0.67406267  0.97423287    -0.03480
Br901      Br  0.74739331  0.63762061  0.98808909    -0.03180
H902        H  0.84691771  0.63548740  0.96955152     0.08980
H903        H  0.78036935  0.75728403  0.91055187     0.07000
Br904      Br  0.79361147  0.70273884  0.83506894    -0.03610
C905        C  0.92461666  0.72841016  0.83926804    -0.10240
C906        C  0.93976053  0.71951148  0.79893761     0.05950
C907        C  0.91986073  0.68645761  0.77694036    -0.04010
C908        C  0.88517765  0.66652093  0.79445501    -0.08460
C909        C  0.88409551  0.66256143  0.83814014     0.05070
C910        C  0.90379558  0.69593668  0.86114035    -0.03480
Br911      Br  0.91366686  0.69542078  0.92008731    -0.03180
H912        H  0.93680903  0.75546791  0.85634387     0.08980
H913        H  0.86752233  0.64453358  0.77520195     0.07000
Br914      Br  0.94861911  0.65378810  0.73611360    -0.03610
C915        C  0.75933937  0.69628083  0.06676240    -0.10240
C916        C  0.78287960  0.72481919  0.04237639     0.05950
C917        C  0.82647084  0.72467193  0.04816140    -0.04010
C918        C  0.84515965  0.69225683  0.07137387    -0.08460
C919        C  0.82102121  0.66237229  0.09363441     0.05070
C920        C  0.77766874  0.66750773  0.09376742    -0.03480
Br921      Br  0.74144915  0.62968555  0.12344793    -0.03180
H922        H  0.72751519  0.68952619  0.05953340     0.08980
H923        H  0.87836633  0.68885797  0.06883201     0.07000
Br924      Br  0.86194994  0.76250269  0.01763499    -0.03610
C925        C  0.70841844  0.05215371  0.21182122    -0.10240
C926        C  0.73352297  0.02560808  0.18680096     0.05950
C927        C  0.72808350  0.02808233  0.14303575    -0.04010
C928        C  0.69317252  0.04901052  0.12685336    -0.08460
C929        C  0.66749926  0.07349385  0.15313697     0.05070
C930        C  0.68003977  0.07992367  0.19455078    -0.03480
Br931      Br  0.65607969  0.12286511  0.22965333    -0.03180
H932        H  0.70642927  0.04739565  0.24523264     0.08980
H933        H  0.68549237  0.04528021  0.09413351     0.07000
Br934      Br  0.76238834  0.99679984  0.10508824    -0.03610
C935        C  0.67329033  0.96140458  0.18923892    -0.10240
C936        C  0.71530491  0.94923504  0.19437396     0.05950
C937        C  0.72650689  0.90965860  0.17638888    -0.04010
C938        C  0.69454764  0.88102047  0.16495628    -0.08460
C939        C  0.65489788  0.89711064  0.15403634     0.05070
C940        C  0.64867221  0.94028116  0.16058497    -0.03480
Br941      Br  0.61375152  0.97247897  0.12425136    -0.03180
H942        H  0.66168314  0.99129588  0.20024265     0.08980
H943        H  0.70247151  0.84816062  0.16022116     0.07000
Br944      Br  0.78093698  0.89905942  0.15293005    -0.03610
C945        C  0.78573129  0.90177590  0.25998202    -0.10240
C946        C  0.77701181  0.94495989  0.26843236     0.05950
C947        C  0.78015547  0.95698102  0.31012129    -0.04010
C948        C  0.80723929  0.93556077  0.33629312    -0.08460
C949        C  0.81660141  0.89227847  0.32892289     0.05070
C950        C  0.80104047  0.87461033  0.29132080    -0.03480
Br951      Br  0.79318150  0.81479126  0.28344667    -0.03180
H952        H  0.77854791  0.88739060  0.23106268     0.08980
H953        H  0.81597129  0.95105127  0.36519686     0.07000
Br954      Br  0.74058594  0.99604181  0.33250966    -0.03610
C955        C  0.79019380  0.05694560  0.26515946    -0.10240
C956        C  0.80492022  0.01804037  0.24922956     0.05950
C957        C  0.84532751  0.00718324  0.26205949    -0.04010
C958        C  0.86232577  0.02455310  0.29917496    -0.08460
C959        C  0.84206873  0.05818329  0.32022955     0.05070
C960        C  0.80704161  0.07581473  0.30083114    -0.03480
Br961      Br  0.77699170  0.12277237  0.32374676    -0.03180
H962        H  0.76581371  0.07395715  0.25164599     0.08980
H963        H  0.89083218  0.01158457  0.31151436     0.07000
Br964      Br  0.87631301  0.96886164  0.22776093    -0.03610
C965        C  0.95293607  0.70494838  0.14236744    -0.10240
C966        C  0.94271019  0.72922810  0.17828238     0.05950
C967        C  0.90014900  0.72601399  0.19119720    -0.04010
C968        C  0.87615216  0.69044949  0.17907852    -0.08460
C969        C  0.89094698  0.66217318  0.14878810     0.05070
C970        C  0.92865801  0.67131295  0.12866237    -0.03480
Br971      Br  0.94993471  0.63696095  0.08352495    -0.03180
H972        H  0.98127723  0.70961644  0.12529591     0.08980
H973        H  0.84461733  0.68667657  0.19066568     0.07000
Br974      Br  0.86561234  0.77459232  0.19990908    -0.03610
C975        C  0.03412673  0.69289348  0.21306870    -0.10240
C976        C  0.02127799  0.72951750  0.19198863     0.05950
C977        C  0.04349497  0.74062287  0.15572128    -0.04010
C978        C  0.06918274  0.71017924  0.13617821    -0.08460
C979        C  0.07892653  0.67122413  0.15574148     0.05070
C980        C  0.06793512  0.66927955  0.19826130    -0.03480
Br981      Br  0.09867380  0.63473735  0.23595933    -0.03180
H982        H  0.01920209  0.68381389  0.24201928     0.08980
H983        H  0.07869489  0.71770869  0.10544049     0.07000
Br984      Br  0.03098836  0.79179771  0.12652496    -0.03610
C985        C  0.04854819  0.77471246  0.27176357    -0.10240
C986        C  0.01641451  0.79914102  0.25433645     0.05950
C987        C  0.01800398  0.84305440  0.26350011    -0.04010
C988        C  0.03960237  0.85719297  0.29881413    -0.08460
C989        C  0.07258575  0.83309201  0.31443545     0.05070
C990        C  0.07988925  0.79352464  0.29569421    -0.03480
Br991      Br  0.13382224  0.76852353  0.29313948    -0.03180
H992        H  0.05043580  0.74133192  0.26820353     0.08980
H993        H  0.03272362  0.88809286  0.31174165     0.07000
Br994      Br  0.00827707  0.88466516  0.22130855    -0.03610
C995        C  0.92515997  0.83366101  0.25770929    -0.10240
C996        C  0.93831583  0.79113451  0.25754624     0.05950
C997        C  0.91991109  0.76381140  0.28705276    -0.04010
C998        C  0.89034686  0.77967967  0.31552374    -0.08460
C999        C  0.88427739  0.82391711  0.32054095     0.05070
C1000       C  0.90374094  0.85086282  0.29182378    -0.03480
Br1001     Br  0.91367537  0.90933415  0.30473049    -0.03180
H1002       H  0.93497486  0.85460092  0.23347675     0.08980
H1003       H  0.87678302  0.75811110  0.33802135     0.07000
Br1004     Br  0.93706801  0.70599400  0.29257180    -0.03610
C1005       C  0.15409635  0.88100276  0.71111735    -0.10240
C1006       C  0.14495775  0.89399716  0.67002723     0.05950
C1007       C  0.15012793  0.93713867  0.66168598    -0.04010
C1008       C  0.17572838  0.96148361  0.68714287    -0.08460
C1009       C  0.18137893  0.95050621  0.72941246     0.05070
C1010       C  0.16448892  0.91117343  0.74189013    -0.03480
Br1011     Br  0.14495227  0.90109917  0.79793849    -0.03180
H1012       H  0.15168460  0.84875561  0.72051628     0.08980
H1013       H  0.18485531  0.99199703  0.67549601     0.07000
Br1014     Br  0.11378655  0.96595808  0.62410870    -0.03610
C1015       C  0.20183134  0.05411843  0.72377819    -0.10240
C1016       C  0.17561623  0.02722249  0.74732904     0.05950
C1017       C  0.13220978  0.02984716  0.74013666    -0.04010
C1018       C  0.11742558  0.05019722  0.70435613    -0.08460
C1019       C  0.14455463  0.07373524  0.67877951     0.05070
C1020       C  0.18603522  0.07972081  0.69223890    -0.03480
Br1021     Br  0.22365170  0.11858881  0.66542734    -0.03180
H1022       H  0.23535350  0.05216452  0.72701226     0.08980
H1023       H  0.08503354  0.04621239  0.69564468     0.07000
Br1024     Br  0.09304437  0.99865472  0.77313047    -0.03610
C1025       C  0.29409328  0.02049727  0.87049521    -0.10240
C1026       C  0.30438056  0.06106880  0.85596134     0.05950
C1027       C  0.27655821  0.08056556  0.82821467    -0.04010
C1028       C  0.24195597  0.05777287  0.81283883    -0.08460
C1029       C  0.23543202  0.01460374  0.82280411     0.05070
C1030       C  0.25658403  0.00070459  0.85873554    -0.03480
Br1031     Br  0.23795586  0.95156322  0.88849306    -0.03180
H1032       H  0.31421812  0.00509449  0.89279138     0.08980
H1033       H  0.22109071  0.07477186  0.79336426     0.07000
Br1034     Br  0.28687791  0.13608882  0.80643648    -0.03610
C1035       C  0.25048177  0.90181523  0.79625370    -0.10240
C1036       C  0.25661630  0.94528509  0.78741243     0.05950
C1037       C  0.29790304  0.95898435  0.78927848    -0.04010
C1038       C  0.32493203  0.93996848  0.81773723    -0.08460
C1039       C  0.31850605  0.89733525  0.83034850     0.05070
C1040       C  0.28327323  0.87705919  0.81234825    -0.03480
Br1041     Br  0.28477444  0.81914049  0.79440807    -0.03180
H1042       H  0.22314433  0.88526462  0.78673431     0.08980
H1043       H  0.35299277  0.95701622  0.82631296     0.07000
Br1044     Br  0.31543869  0.00366805  0.75332192    -0.03610
C1045       C  0.00538962  0.15441314  0.68968869    -0.10240
C1046       C  0.01785197  0.16578127  0.73061017     0.05950
C1047       C  0.05964988  0.15544340  0.74144278    -0.04010
C1048       C  0.08779538  0.14321550  0.70956008    -0.08460
C1049       C  0.07261662  0.12850985  0.67058617     0.05070
C1050       C  0.02952520  0.12877424  0.66473298    -0.03480
Br1051     Br  0.00161838  0.09297151  0.62473466    -0.03180
H1052       H  0.97483547  0.16114891  0.67779393     0.08980
H1053       H  0.12072132  0.14219358  0.71652896     0.07000
Br1054     Br  0.07842711  0.14646947  0.79747646    -0.03610
C1055       C  0.88574498  0.16939997  0.69429789    -0.10240
C1056       C  0.89190626  0.12709485  0.68308434     0.05950
C1057       C  0.91587703  0.10213025  0.71042610    -0.04010
C1058       C  0.93671114  0.12154116  0.74426124    -0.08460
C1059       C  0.94056714  0.16617213  0.74659520     0.05070
C1060       C  0.91275711  0.19016799  0.72182862    -0.03480
Br1061     Br  0.91802782  0.24967497  0.71155071    -0.03180
H1062       H  0.86558795  0.18793848  0.67535551     0.08980
H1063       H  0.95753604  0.10231178  0.76268967     0.07000
Br1064     Br  0.92864319  0.04404246  0.69940158    -0.03610
C1065       C  0.91215571  0.22909308  0.81521794    -0.10240
C1066       C  0.95280672  0.24174449  0.80315723     0.05950
C1067       C  0.96190917  0.28501389  0.80525116    -0.04010
C1068       C  0.93981519  0.31039997  0.83202650    -0.08460
C1069       C  0.89742901  0.30155692  0.83911188     0.05070
C1070       C  0.88280311  0.26031332  0.82754301    -0.03480
Br1071     Br  0.82482552  0.24639357  0.82155442    -0.03180
H1072       H  0.90222554  0.19644868  0.81211873     0.08980
H1073       H  0.95332107  0.34089996  0.83990043     0.07000
Br1074     Br  0.99078106  0.31235943  0.76049293    -0.03610
C1075       C  0.05979949  0.24900247  0.78475107    -0.10240
C1076       C  0.02913214  0.22829570  0.80879885     0.05950
C1077       C  0.03014209  0.23534179  0.85252383    -0.04010
C1078       C  0.05220156  0.27001339  0.86938493    -0.08460
C1079       C  0.07755597  0.29543151  0.84397836     0.05070
C1080       C  0.08477198  0.28142350  0.80242431    -0.03480
Br1081     Br  0.12597729  0.30794619  0.76766866    -0.03180
H1082       H  0.06115431  0.24369583  0.75138651     0.08980
H1083       H  0.04800885  0.27823593  0.90197712     0.07000
Br1084     Br  0.99706466  0.20141719  0.88943232    -0.03610
C1085       C  0.68552808  0.15753233  0.01655357    -0.10240
C1086       C  0.72739768  0.16163534  0.02930941     0.05950
C1087       C  0.73609635  0.15081867  0.07136785    -0.04010
C1088       C  0.70253491  0.14142237  0.09878263    -0.08460
C1089       C  0.66252496  0.13086245  0.08263320     0.05070
C1090       C  0.65743193  0.13410419  0.03956988    -0.03480
Br1091     Br  0.61778745  0.09972300  0.00981893    -0.03180
H1092       H  0.67579444  0.16647266  0.98584781     0.08980
H1093       H  0.70876828  0.13955869  0.13181495     0.07000
Br1094     Br  0.79162249  0.14355554  0.09208050    -0.03610
C1095       C  0.69550569  0.09415569  0.93167719    -0.10240
C1096       C  0.67219633  0.12464714  0.90983567     0.05950
C1097       C  0.69039287  0.16532030  0.90592367    -0.04010
C1098       C  0.72938312  0.17420516  0.92246780    -0.08460
C1099       C  0.74645814  0.14902225  0.95359740     0.05070
C1100       C  0.73201467  0.10619931  0.95395280    -0.03480
Br1101     Br  0.75689966  0.06557709  0.99022053    -0.03180
H1102       H  0.68348611  0.06216861  0.93450154     0.08980
H1103       H  0.74188151  0.20421017  0.91477853     0.07000
Br1104     Br  0.66455041  0.21308635  0.88149589    -0.03610
C1105       C  0.77411938  0.24400207  0.06565038    -0.10240
C1106       C  0.80207972  0.22688519  0.03613087     0.05950
C1107       C  0.84443664  0.23951493  0.03973282    -0.04010
C1108       C  0.85497539  0.27617503  0.06192269    -0.08460
C1109       C  0.82766089  0.29210359  0.09225080     0.05070
C1110       C  0.78853308  0.27190778  0.09692270    -0.03480
Br1111     Br  0.75974149  0.27156388  0.14910778    -0.03180
H1112       H  0.74164529  0.23490806  0.06575685     0.08980
H1113       H  0.88653838  0.28849866  0.06028206     0.07000
Br1114     Br  0.88968693  0.20228927  0.02655624    -0.03610
C1115       C  0.84062645  0.22789997  0.94293663    -0.10240
C1116       C  0.79987910  0.22960293  0.95907105     0.05950
C1117       C  0.77470451  0.26378504  0.94657410    -0.04010
C1118       C  0.78880252  0.29126903  0.91566067    -0.08460
C1119       C  0.83188407  0.29526983  0.90717825     0.05070
C1120       C  0.85826368  0.26358092  0.92336282    -0.03480
Br1121     Br  0.91717702  0.27161450  0.92984107    -0.03180
H1122       H  0.86033693  0.20155619  0.95037924     0.08980
H1123       H  0.76724125  0.31453265  0.90369640     0.07000
Br1124     Br  0.72066246  0.27415466  0.97056245    -0.03610
C1125       C  0.18006299  0.67846996  0.08626808    -0.10240
C1126       C  0.13797663  0.66702887  0.08166931     0.05950
C1127       C  0.11586827  0.68591574  0.04908669    -0.04010
C1128       C  0.13404689  0.71915105  0.02685523    -0.08460
C1129       C  0.17782774  0.72490289  0.02520808     0.05070
C1130       C  0.20079413  0.70052888  0.05433055    -0.03480
Br1131     Br  0.25452653  0.67796639  0.04328635    -0.03180
H1132       H  0.19841308  0.66220900  0.10924180     0.08980
H1133       H  0.11352720  0.73681537  0.00755630     0.07000
Br1134     Br  0.06060810  0.66764690  0.03390750    -0.03610
C1135       C  0.20429526  0.69643773  0.92723390    -0.10240
C1136       C  0.18116032  0.72845915  0.94687094     0.05950
C1137       C  0.13961943  0.73349874  0.93428191    -0.04010
C1138       C  0.11850720  0.69869358  0.91695412    -0.08460
C1139       C  0.14051621  0.66342502  0.90108017     0.05070
C1140       C  0.18434120  0.66821760  0.89964145    -0.03480
Br1141     Br  0.21695359  0.63544845  0.86190452    -0.03180
H1142       H  0.23749257  0.69394521  0.93272457     0.08980
H1143       H  0.08546235  0.69992624  0.91812598     0.07000
Br1144     Br  0.11094933  0.78636958  0.94197035    -0.03610
C1145       C  0.23370075  0.81479888  0.06081095    -0.10240
C1146       C  0.24789972  0.78903366  0.02767470     0.05950
C1147       C  0.28692838  0.77027862  0.03186746    -0.04010
C1148       C  0.30721539  0.77413426  0.06965674    -0.08460
C1149       C  0.30333477  0.81153541  0.09339887     0.05070
C1150       C  0.26078352  0.82503900  0.09469043    -0.03480
Br1151     Br  0.23161433  0.82801488  0.14704764    -0.03180
H1152       H  0.20159739  0.82519470  0.06125727     0.08980
H1153       H  0.32626893  0.74799201  0.07920024     0.07000
Br1154     Br  0.31440294  0.73948093  0.98778502    -0.03610
C1155       C  0.26036421  0.84632325  0.96049463    -0.10240
C1156       C  0.24067906  0.80693030  0.95122814     0.05950
C1157       C  0.25088156  0.78864854  0.91203982    -0.04010
C1158       C  0.28856775  0.79975951  0.89284277    -0.08460
C1159       C  0.30948494  0.83752132  0.90323830     0.05070
C1160       C  0.29410665  0.86166941  0.93677213    -0.03480
Br1161     Br  0.32266573  0.91202971  0.95506307    -0.03180
H1162       H  0.25213552  0.86336063  0.98868692     0.08980
H1163       H  0.29993175  0.78023611  0.86750087     0.07000
Br1164     Br  0.20857057  0.77908084  0.87068480    -0.03610
C1165       C  0.18276027  0.54049885  0.63058004    -0.10240
C1166       C  0.15908365  0.56835067  0.65536194     0.05950
C1167       C  0.17006853  0.57353390  0.69732958    -0.04010
C1168       C  0.19846492  0.54623224  0.71562953    -0.08460
C1169       C  0.22183288  0.51769817  0.69146431     0.05070
C1170       C  0.21541898  0.51718232  0.64791968    -0.03480
Br1171     Br  0.25011560  0.48487912  0.61106308    -0.03180
H1172       H  0.17570419  0.53637568  0.59787739     0.08980
H1173       H  0.20220757  0.54732762  0.74918200     0.07000
Br1174     Br  0.14963934  0.61934445  0.72991841    -0.03610
C1175       C  0.14888262  0.40689175  0.71066033    -0.10240
C1176       C  0.15904721  0.38014288  0.67647067     0.05950
C1177       C  0.20212131  0.37676146  0.66730350    -0.04010
C1178       C  0.22910363  0.40961094  0.67949521    -0.08460
C1179       C  0.21593500  0.44119878  0.70741746     0.05070
C1180       C  0.17661008  0.43689379  0.72612837    -0.03480
Br1181     Br  0.15701486  0.47182653  0.77118288    -0.03180
H1182       H  0.11829552  0.40723982  0.72447872     0.08980
H1183       H  0.26088394  0.40963804  0.66815681     0.07000
Br1184     Br  0.22944000  0.32308766  0.66309261    -0.03610
C1185       C  0.29777986  0.40666894  0.75740862    -0.10240
C1186       C  0.28121101  0.44638838  0.76905687     0.05950
C1187       C  0.27515924  0.45448784  0.81155536    -0.04010
C1188       C  0.29333340  0.42850500  0.84076895    -0.08460
C1189       C  0.31472387  0.39055269  0.83014756     0.05070
C1190       C  0.31072077  0.37726298  0.78785819    -0.03480
Br1191     Br  0.31038221  0.31882971  0.77091699    -0.03180
H1192       H  0.30043209  0.39807355  0.72490430     0.08980
H1193       H  0.29005060  0.43971212  0.87232854     0.07000
Br1194     Br  0.24374588  0.50183756  0.83257554    -0.03610
C1195       C  0.28602291  0.56103031  0.75559402    -0.10240
C1196       C  0.30217762  0.52055955  0.74730398     0.05950
C1197       C  0.34174746  0.51278620  0.76421111    -0.04010
C1198       C  0.35401393  0.53320939  0.80126239    -0.08460
C1199       C  0.33041867  0.56726546  0.81672397     0.05070
C1200       C  0.30010004  0.58472546  0.78995670    -0.03480
Br1201     Br  0.28714634  0.64404856  0.79087317    -0.03180
H1202       H  0.26563583  0.57616373  0.73399467     0.08980
H1203       H  0.38213969  0.52350932  0.81710851     0.07000
Br1204     Br  0.37911139  0.47710963  0.73416396    -0.03610
C1205       C  0.43358301  0.21631130  0.65906359    -0.10240
C1206       C  0.43325101  0.21447215  0.70300887     0.05950
C1207       C  0.40098171  0.18957201  0.72185409    -0.04010
C1208       C  0.37462155  0.16478151  0.69695391    -0.08460
C1209       C  0.38345915  0.15851661  0.65485005     0.05070
C1210       C  0.41243606  0.18557498  0.63546450    -0.03480
Br1211     Br  0.42968679  0.17720061  0.57909198    -0.03180
H1212       H  0.45728139  0.23515321  0.64357758     0.08980
H1213       H  0.35188733  0.14416904  0.71174722     0.07000
Br1214     Br  0.39636501  0.17377226  0.77892833    -0.03610
C1215       C  0.52415216  0.14674680  0.65427118    -0.10240
C1216       C  0.56690416  0.15597908  0.65140299     0.05950
C1217       C  0.58152269  0.19161256  0.67453773    -0.04010
C1218       C  0.55202443  0.21726175  0.69575808    -0.08460
C1219       C  0.51151843  0.20087805  0.70468773     0.05070
C1220       C  0.50262068  0.16065135  0.68857696    -0.03480
Br1221     Br  0.47163378  0.11896342  0.71888619    -0.03180
H1222       H  0.50959573  0.12208713  0.63599990     0.08980
H1223       H  0.56198929  0.24822255  0.70608648     0.07000
Br1224     Br  0.63942382  0.20483406  0.68179393    -0.03610
C1225       C  0.54622014  0.24903854  0.78883353    -0.10240
C1226       C  0.51976333  0.27504393  0.76564696     0.05950
C1227       C  0.52995709  0.31834046  0.76262002    -0.04010
C1228       C  0.55685790  0.33629839  0.79177199    -0.08460
C1229       C  0.58009859  0.31071470  0.81847176     0.05070
C1230       C  0.58007077  0.26696097  0.80998770    -0.03480
Br1231     Br  0.63166871  0.24285019  0.79329131    -0.03180
H1232       H  0.54323043  0.21488317  0.78671541     0.08980
H1233       H  0.55896875  0.36992308  0.79295045     0.07000
Br1234     Br  0.51374083  0.35274328  0.71643465    -0.03610
C1235       C  0.42748450  0.31641063  0.76240834    -0.10240
C1236       C  0.44315798  0.27622250  0.77234936     0.05950
C1237       C  0.43147250  0.25838966  0.81061559    -0.04010
C1238       C  0.39797790  0.27536949  0.83182356    -0.08460
C1239       C  0.38887306  0.31867075  0.82720804     0.05070
C1240       C  0.40660882  0.33990822  0.79312120    -0.03480
Br1241     Br  0.41418649  0.39975829  0.79374482    -0.03180
H1242       H  0.43632396  0.33173429  0.73388072     0.08980
H1243       H  0.38520165  0.25707089  0.85711388     0.07000
Br1244     Br  0.46449022  0.21754945  0.84048473    -0.03610
C1245       C  0.70699743  0.42220820  0.21067396    -0.10240
C1246       C  0.68153875  0.43115236  0.24472973     0.05950
C1247       C  0.65045039  0.40139502  0.25493660    -0.04010
C1248       C  0.63613632  0.37317421  0.22377143    -0.08460
C1249       C  0.65485143  0.37272983  0.18357921     0.05070
C1250       C  0.69557155  0.39023936  0.18275328    -0.03480
Br1251     Br  0.73676952  0.37153174  0.14498719    -0.03180
H1252       H  0.73503427  0.44070139  0.20523357     0.08980
H1253       H  0.61032525  0.35359536  0.23218278     0.07000
Br1254     Br  0.62478683  0.40121934  0.30921285    -0.03610
C1255       C  0.61616849  0.51874346  0.18170213    -0.10240
C1256       C  0.62989043  0.56056707  0.17775349     0.05950
C1257       C  0.65458526  0.57766005  0.21011360    -0.04010
C1258       C  0.66731909  0.55171387  0.24338840    -0.08460
C1259       C  0.65741141  0.50784948  0.24461719     0.05070
C1260       C  0.62483970  0.49523730  0.21706565    -0.03480
Br1261     Br  0.57943997  0.45898362  0.23299581    -0.03180
H1262       H  0.59574545  0.50523976  0.15814346     0.08980
H1263       H  0.68417004  0.56719012  0.26791781     0.07000
Br1264     Br  0.67504558  0.63460621  0.20895003    -0.03610
C1265       C  0.75920074  0.54919436  0.27620538    -0.10240
C1266       C  0.73487427  0.52441839  0.30388925     0.05950
C1267       C  0.73948096  0.53285424  0.34671690    -0.04010
C1268       C  0.77239513  0.55849514  0.36102282    -0.08460
C1269       C  0.79944526  0.58070383  0.33402873     0.05070
C1270       C  0.79011477  0.57779622  0.29090390    -0.03480
Br1271     Br  0.82178634  0.60884003  0.25046541    -0.03180
H1272       H  0.75677543  0.54343375  0.24293636     0.08980
H1273       H  0.77851566  0.55688345  0.39337693     0.07000
Br1274     Br  0.70723024  0.50232821  0.38725854    -0.03610
C1275       C  0.74237258  0.40054563  0.30993887    -0.10240
C1276       C  0.74914932  0.44519851  0.30515803     0.05950
C1277       C  0.78905958  0.45865637  0.31515353    -0.04010
C1278       C  0.80944073  0.43778275  0.34683386    -0.08460
C1279       C  0.81060174  0.39327418  0.34448717     0.05070
C1280       C  0.77530587  0.37406391  0.32484736    -0.03480
Br1281     Br  0.77092622  0.31404360  0.31640040    -0.03180
H1282       H  0.71374190  0.38538740  0.30105899     0.08980
H1283       H  0.83233277  0.45540310  0.36481917     0.07000
Br1284     Br  0.82087339  0.47311863  0.26640999    -0.03610
C1285       C  0.52362657  0.61791716  0.23708444    -0.10240
C1286       C  0.52855550  0.66131822  0.24615292     0.05950
C1287       C  0.56155653  0.68205756  0.22497908    -0.04010
C1288       C  0.57627103  0.66569658  0.18709701    -0.08460
C1289       C  0.56634852  0.62469488  0.17382588     0.05070
C1290       C  0.54171789  0.59942807  0.20137754    -0.03480
Br1291     Br  0.52427565  0.54217442  0.19064597    -0.03180
H1292       H  0.50008566  0.60007003  0.25387123     0.08980
H1293       H  0.60022749  0.68262584  0.17056316     0.07000
Br1294     Br  0.60556769  0.70901527  0.25534999    -0.03610
C1295       C  0.46290117  0.66897357  0.18491332    -0.10240
C1296       C  0.45171766  0.67394067  0.22696280     0.05950
C1297       C  0.40960722  0.66284289  0.23740942    -0.04010
C1298       C  0.38102011  0.65155458  0.20553086    -0.08460
C1299       C  0.39574101  0.64021865  0.16569568     0.05070
C1300       C  0.43855470  0.64427985  0.15876405    -0.03480
Br1301     Br  0.46710873  0.59902077  0.13206797    -0.03180
H1302       H  0.49409889  0.67607218  0.17451502     0.08980
H1303       H  0.34846597  0.64695699  0.21321453     0.07000
Br1304     Br  0.39009668  0.65114873  0.29226583    -0.03610
C1305       C  0.42624409  0.76375935  0.27228750    -0.10240
C1306       C  0.44540575  0.73524013  0.29917544     0.05950
C1307       C  0.42943794  0.73131430  0.33982998    -0.04010
C1308       C  0.39975377  0.75983796  0.35423128    -0.08460
C1309       C  0.38598943  0.79409227  0.33029119     0.05070
C1310       C  0.39584986  0.79168943  0.28721968    -0.03480
Br1311     Br  0.36388669  0.81912723  0.24605101    -0.03180
H1312       H  0.43512401  0.76464045  0.23971980     0.08980
H1313       H  0.38874971  0.75369697  0.38408861     0.07000
Br1314     Br  0.44395961  0.68599550  0.37697151    -0.03610
C1315       C  0.53268520  0.73698544  0.34571111    -0.10240
C1316       C  0.52209123  0.73896726  0.30313096     0.05950
C1317       C  0.53873983  0.77265396  0.27953282    -0.04010
C1318       C  0.56787514  0.80018751  0.29751562    -0.08460
C1319       C  0.57493617  0.80084438  0.34097177     0.05070
C1320       C  0.55496131  0.76994927  0.36520178    -0.03480
Br1321     Br  0.54776822  0.77760646  0.42390383    -0.03180
H1322       H  0.52044237  0.71220896  0.36494874     0.08980
H1323       H  0.58211140  0.82384228  0.27773262     0.07000
Br1324     Br  0.52350552  0.78276690  0.22241419    -0.03610
C1325       C  0.20371504  0.62484848  0.40730623    -0.10240
C1326       C  0.16856047  0.64927388  0.39524423     0.05950
C1327       C  0.16946237  0.69214681  0.40798941    -0.04010
C1328       C  0.19500733  0.70487019  0.44072537    -0.08460
C1329       C  0.22839961  0.68024547  0.45364784     0.05070
C1330       C  0.23624588  0.64256277  0.43141003    -0.03480
Br1331     Br  0.28314242  0.60798303  0.44509869    -0.03180
H1332       H  0.20519866  0.59115203  0.40253728     0.08980
H1333       H  0.18566817  0.73184515  0.45875193     0.07000
Br1334     Br  0.13201479  0.73323659  0.38760327    -0.03610
C1335       C  0.19589077  0.65115593  0.60033936    -0.10240
C1336       C  0.16495918  0.62386806  0.58461617     0.05950
C1337       C  0.16988356  0.60718037  0.54447798    -0.04010
C1338       C  0.19897095  0.62512551  0.51800890    -0.08460
C1339       C  0.22618266  0.65851705  0.53060668     0.05070
C1340       C  0.22904100  0.66440871  0.57445273    -0.03480
Br1341     Br  0.28181569  0.66126928  0.60123931    -0.03180
H1342       H  0.19587519  0.65944094  0.63319220     0.08980
H1343       H  0.19723945  0.61301452  0.48704893     0.07000
Br1344     Br  0.13307058  0.56433199  0.52189369    -0.03610
C1345       C  0.33030282  0.73536175  0.54951403    -0.10240
C1346       C  0.28688190  0.73866308  0.54387987     0.05950
C1347       C  0.26514130  0.76749625  0.56947331    -0.04010
C1348       C  0.28742992  0.79596341  0.59488943    -0.08460
C1349       C  0.33135648  0.79839230  0.59286878     0.05070
C1350       C  0.35277376  0.76754088  0.56958879    -0.03480
Br1351     Br  0.41201257  0.77021972  0.56079387    -0.03180
H1352       H  0.34731852  0.71010402  0.53447633     0.08980
H1353       H  0.27024399  0.81844461  0.61378093     0.07000
Br1354     Br  0.20545967  0.77004839  0.57019999    -0.03610
C1355       C  0.32845445  0.74882731  0.45788732    -0.10240
C1356       C  0.28541216  0.75009056  0.46666370     0.05950
C1357       C  0.26250376  0.78281316  0.44690703    -0.04010
C1358       C  0.28091315  0.80569449  0.41418663    -0.08460
C1359       C  0.32440945  0.80563228  0.40836041     0.05070
C1360       C  0.34761222  0.78224054  0.43699982    -0.03480
Br1361     Br  0.40390446  0.79785700  0.45209389    -0.03180
H1362       H  0.34831154  0.72527431  0.47123895     0.08980
H1363       H  0.26230807  0.82883195  0.39808115     0.07000
Br1364     Br  0.21303682  0.80812955  0.46943803    -0.03610
C1365       C  0.69190451  0.15478842  0.58589951    -0.10240
C1366       C  0.64886814  0.16088056  0.59203230     0.05950
C1367       C  0.63146607  0.19912444  0.57700652    -0.04010
C1368       C  0.65752670  0.22811913  0.55636166    -0.08460
C1369       C  0.69482525  0.21332054  0.53861627     0.05070
C1370       C  0.71218007  0.17596622  0.55417590    -0.03480
Br1371     Br  0.75868307  0.14758466  0.52902986    -0.03180
H1372       H  0.70793282  0.12840557  0.59962792     0.08980
H1373       H  0.64435134  0.25740637  0.54501556     0.07000
Br1374     Br  0.57286171  0.20963898  0.57186222    -0.03610
C1375       C  0.68179247  0.16652486  0.39649690    -0.10240
C1376       C  0.64112342  0.15428818  0.40675283     0.05950
C1377       C  0.62470686  0.16805714  0.44485293    -0.04010
C1378       C  0.64410136  0.20121657  0.46574147    -0.08460
C1379       C  0.68698327  0.20995603  0.46021492     0.05070
C1380       C  0.70610392  0.19006331  0.42496434    -0.03480
Br1381     Br  0.76398246  0.18054176  0.41771488    -0.03180
H1382       H  0.69662935  0.15168482  0.36979365     0.08980
H1383       H  0.62578416  0.21658364  0.48924220     0.07000
Br1384     Br  0.57531839  0.14341279  0.46958302    -0.03610
C1385       C  0.74914475  0.31495231  0.43973343    -0.10240
C1386       C  0.75965554  0.27727610  0.45993471     0.05950
C1387       C  0.80045300  0.26182767  0.45421092    -0.04010
C1388       C  0.82538734  0.27897116  0.42349641    -0.08460
C1389       C  0.81858973  0.32032580  0.40900551     0.05070
C1390       C  0.78060083  0.33977050  0.42142025    -0.03480
Br1391     Br  0.77510539  0.39936425  0.43230154    -0.03180
H1392       H  0.71902798  0.32889309  0.44545497     0.08980
H1393       H  0.85318409  0.26165094  0.41600480     0.07000
Br1394     Br  0.82775921  0.22124848  0.48931396    -0.03610
C1395       C  0.77398102  0.26133886  0.56419096    -0.10240
C1396       C  0.75057513  0.28539112  0.53644790     0.05950
C1397       C  0.75160745  0.33006775  0.54125522    -0.04010
C1398       C  0.78316511  0.34923617  0.56524909    -0.08460
C1399       C  0.81006217  0.32396746  0.58863044     0.05070
C1400       C  0.80232075  0.28030682  0.59082084    -0.03480
Br1401     Br  0.82786655  0.24537697  0.63120812    -0.03180
H1402       H  0.77349485  0.22741344  0.56315734     0.08980
H1403       H  0.78655396  0.38340706  0.56584884     0.07000
Br1404     Br  0.70779886  0.36532492  0.52108653    -0.03610
C1405       C  0.24539828  0.94159322  0.14210913    -0.10240
C1406       C  0.24842893  0.95091691  0.18538050     0.05950
C1407       C  0.27885458  0.92940702  0.20791655    -0.04010
C1408       C  0.29776101  0.89449704  0.18990910    -0.08460
C1409       C  0.30414283  0.89315522  0.14658179     0.05070
C1410       C  0.27673230  0.91749523  0.12209778    -0.03480
Br1411     Br  0.28114990  0.91945103  0.06251779    -0.03180
H1412       H  0.22130366  0.95545090  0.12326182     0.08980
H1413       H  0.31433123  0.87365751  0.20996097     0.07000
Br1414     Br  0.29796608  0.94728341  0.26227060    -0.03610
C1415       C  0.17026603  0.99853825  0.30584636    -0.10240
C1416       C  0.17964318  0.01395077  0.26571253     0.05950
C1417       C  0.16788206  0.05672584  0.25752243    -0.04010
C1418       C  0.15243145  0.08230277  0.29062856    -0.08460
C1419       C  0.13746800  0.06308076  0.32738402     0.05070
C1420       C  0.14237720  0.01938874  0.33135352    -0.03480
Br1421     Br  0.10800844  0.98684409  0.36849184    -0.03180
H1422       H  0.17965262  0.96739710  0.31541571     0.08980
H1423       H  0.14799845  0.11593379  0.28606833     0.07000
Br1424     Br  0.16380016  0.08035602  0.20281362    -0.03610
C1425       C  0.24833307  0.03745581  0.15058486    -0.10240
C1426       C  0.24538307  0.03012155  0.19361307     0.05950
C1427       C  0.27001410  0.05683723  0.21981646    -0.04010
C1428       C  0.29823245  0.08598068  0.20156196    -0.08460
C1429       C  0.30911870  0.08235946  0.15886956     0.05070
C1430       C  0.28460363  0.05498009  0.13426413    -0.03480
Br1431     Br  0.30695125  0.02458986  0.08781099    -0.03180
H1432       H  0.22761103  0.02140311  0.12932535     0.08980
H1433       H  0.31666555  0.10638046  0.22174151     0.07000
Br1434     Br  0.27106817  0.05313752  0.27949007    -0.03610
C1435       C  0.19918178  0.90414531  0.26212334    -0.10240
C1436       C  0.17632831  0.93651840  0.24226860     0.05950
C1437       C  0.13292621  0.93486395  0.24863315    -0.04010
C1438       C  0.11694441  0.91522250  0.28456804    -0.08460
C1439       C  0.14193371  0.88866276  0.30942489     0.05070
C1440       C  0.18223564  0.87987654  0.29452412    -0.03480
Br1441     Br  0.21745200  0.83847837  0.31999013    -0.03180
H1442       H  0.23100768  0.89848993  0.25586848     0.08980
H1443       H  0.08632892  0.92429015  0.29461132     0.07000
Br1444     Br  0.09664501  0.96743807  0.21425974    -0.03610
C1445       C  0.04027310  0.26325974  0.21704345    -0.10240
C1446       C  0.02062468  0.23216937  0.19281175     0.05950
C1447       C  0.02853372  0.23177776  0.14976444    -0.04010
C1448       C  0.04730821  0.26669196  0.13089309    -0.08460
C1449       C  0.06779364  0.29823971  0.15430751     0.05070
C1450       C  0.06485270  0.29475253  0.19834658    -0.03480
Br1451     Br  0.08727451  0.33585570  0.23487423    -0.03180
H1452       H  0.03418781  0.26486673  0.25025031     0.08980
H1453       H  0.04275265  0.26983058  0.09809098     0.07000
Br1454     Br  0.01597058  0.18372567  0.11539533    -0.03610
C1455       C  0.91084627  0.18194315  0.27124596    -0.10240
C1456       C  0.94116040  0.15820207  0.24974251     0.05950
C1457       C  0.94224841  0.11446529  0.25735804    -0.04010
C1458       C  0.92602450  0.09899093  0.29460715    -0.08460
C1459       C  0.90029467  0.12449966  0.31963225     0.05070
C1460       C  0.88939065  0.16504664  0.30505198    -0.03480
Br1461     Br  0.85041274  0.20179476  0.33293377    -0.03180
H1462       H  0.90691269  0.21511542  0.26633184     0.08980
H1463       H  0.93413010  0.06738018  0.30415663     0.07000
Br1464     Br  0.96593002  0.07563453  0.21789191    -0.03610
C1465       C  0.04295099  0.13382646  0.25395304    -0.10240
C1466       C  0.01740578  0.16896910  0.26292598     0.05950
C1467       C  0.01286287  0.18055956  0.30487535    -0.04010
C1468       C  0.02759633  0.15410399  0.33564588    -0.08460
C1469       C  0.05984364  0.12474451  0.32843439     0.05070
C1470       C  0.06132728  0.10986553  0.28645644    -0.03480
Br1471     Br  0.05864188  0.05015351  0.27573728    -0.03180
H1472       H  0.04271761  0.12088969  0.22259730     0.08980
H1473       H  0.01312564  0.15737637  0.36569591     0.07000
Br1474     Br  0.98313143  0.23018533  0.32275449    -0.03610
C1475       C  0.93245656  0.27218524  0.22119950    -0.10240
C1476       C  0.94304896  0.23591035  0.19781335     0.05950
C1477       C  0.91630304  0.22342775  0.16547342    -0.04010
C1478       C  0.88670831  0.25203250  0.15076245    -0.08460
C1479       C  0.88121114  0.29257145  0.16954520     0.05070
C1480       C  0.89776861  0.29624876  0.21004853    -0.03480
Br1481     Br  0.87138156  0.33179253  0.25061951    -0.03180
H1482       H  0.94909497  0.27977582  0.24966201     0.08980
H1483       H  0.86753664  0.23957444  0.12664271     0.07000
Br1484     Br  0.91640335  0.16723420  0.14235507    -0.03610
C1485       C  0.14929102  0.26550200  0.90055979    -0.10240
C1486       C  0.13437413  0.30427504  0.91667473     0.05950
C1487       C  0.13838436  0.31107245  0.95963011    -0.04010
C1488       C  0.16690418  0.28759916  0.98210661    -0.08460
C1489       C  0.17698728  0.24607873  0.96936353     0.05070
C1490       C  0.16533547  0.23439513  0.92774589    -0.03480
Br1491     Br  0.16160913  0.17736018  0.90737856    -0.03180
H1492       H  0.14611277  0.25808118  0.86774679     0.08980
H1493       H  0.17498999  0.29869188  0.01302546     0.07000
Br1494     Br  0.10213559  0.34951945  0.98862392    -0.03610
C1495       C  0.30225624  0.18907966  0.09613070    -0.10240
C1496       C  0.31426546  0.14602361  0.09408649     0.05950
C1497       C  0.29857825  0.12252673  0.06063337    -0.04010
C1498       C  0.26131029  0.13487781  0.04245848    -0.08460
C1499       C  0.25215633  0.17840377  0.03915349     0.05070
C1500       C  0.27664255  0.20605329  0.06451380    -0.03480
Br1501     Br  0.27855425  0.26616048  0.05553329    -0.03180
H1502       H  0.31805200  0.21042017  0.11758402     0.08980
H1503       H  0.24473826  0.11104567  0.02520628     0.07000
Br1504     Br  0.33864111  0.09644829  0.02374168    -0.03610
C1505       C  0.18381626  0.23814079  0.08219752    -0.10240
C1506       C  0.16545118  0.22295833  0.04488623     0.05950
C1507       C  0.12294878  0.23324353  0.03989119    -0.04010
C1508       C  0.10810071  0.27075668  0.05791756    -0.08460
C1509       C  0.13075310  0.29219587  0.08915261     0.05070
C1510       C  0.16736959  0.27323578  0.10371136    -0.03480
Br1511     Br  0.19752666  0.29628826  0.15035064    -0.03180
H1512       H  0.21102718  0.22413692  0.09491323     0.08980
H1513       H  0.07977765  0.28421575  0.04570675     0.07000
Br1514     Br  0.08836070  0.20463720  0.99967974    -0.03610
C1515       C  0.23896333  0.13460735  0.95249184    -0.10240
C1516       C  0.24366124  0.17799323  0.96071112     0.05950
C1517       C  0.27225269  0.20042998  0.93593345    -0.04010
C1518       C  0.29886877  0.17783904  0.90897251    -0.08460
C1519       C  0.30416565  0.13340340  0.91345536     0.05070
C1520       C  0.27199272  0.11167413  0.93537249    -0.03480
Br1521     Br  0.27369393  0.05437514  0.95466973    -0.03180
H1522       H  0.21355416  0.11756760  0.96721882     0.08980
H1523       H  0.31931654  0.19568648  0.88861796     0.07000
Br1524     Br  0.27788080  0.26076516  0.93938641    -0.03610
C1525       C  0.54013525  0.21983069  0.31818365    -0.10240
C1526       C  0.52136674  0.20252682  0.28296094     0.05950
C1527       C  0.53582716  0.16396617  0.26743943    -0.04010
C1528       C  0.56559864  0.14191904  0.28974005    -0.08460
C1529       C  0.57575951  0.15256645  0.33164426     0.05070
C1530       C  0.56334876  0.19428191  0.34487020    -0.03480
Br1531     Br  0.56518406  0.22039835  0.39835565    -0.03180
H1532       H  0.53086166  0.25130645  0.32819360     0.08980
H1533       H  0.57713438  0.11381898  0.27480950     0.07000
Br1534     Br  0.51515324  0.13916980  0.21671860    -0.03610
C1535       C  0.41017332  0.28478882  0.23074846    -0.10240
C1536       C  0.44707556  0.26625776  0.21552351     0.05950
C1537       C  0.45308441  0.26409540  0.17257538    -0.04010
C1538       C  0.43089489  0.29036944  0.14751158    -0.08460
C1539       C  0.39529716  0.31299823  0.16124803     0.05070
C1540       C  0.38212787  0.30443985  0.20292008    -0.03480
Br1541     Br  0.32549217  0.30839554  0.22162109    -0.03180
H1542       H  0.40270859  0.28299408  0.26363366     0.08980
H1543       H  0.44283210  0.29107284  0.11639129     0.07000
Br1544     Br  0.49146525  0.22629916  0.14505607    -0.03610
C1545       C  0.38669975  0.15593949  0.29606246    -0.10240
C1546       C  0.39464903  0.15265689  0.33910523     0.05950
C1547       C  0.42567454  0.17869776  0.35666883    -0.04010
C1548       C  0.44448348  0.20974044  0.33271871    -0.08460
C1549       C  0.44352779  0.20676549  0.28908294     0.05070
C1550       C  0.41276224  0.18054653  0.27053272    -0.03480
Br1551     Br  0.40755227  0.17256446  0.21158449    -0.03180
H1552       H  0.36368268  0.13535394  0.28161304     0.08980
H1553       H  0.46658545  0.23049728  0.34800697     0.07000
Br1554     Br  0.45642827  0.16317593  0.40511744    -0.03610
C1555       C  0.55673567  0.25659551  0.21226347    -0.10240
C1556       C  0.52276003  0.27808394  0.23041420     0.05950
C1557       C  0.52073347  0.32229590  0.22575504    -0.04010
C1558       C  0.54404685  0.34203223  0.19464143    -0.08460
C1559       C  0.57504996  0.31940410  0.17334461     0.05070
C1560       C  0.58355497  0.27738333  0.18474546    -0.03480
Br1561     Br  0.62908760  0.24611995  0.16105218    -0.03180
H1562       H  0.56014498  0.22285101  0.21507026     0.08980
H1563       H  0.53919628  0.37526404  0.18809229     0.07000
Br1564     Br  0.48623216  0.35590214  0.26158876    -0.03610
C1565       C  0.22739116  0.40455587  0.29059939    -0.10240
C1566       C  0.24481388  0.43650393  0.31593589     0.05950
C1567       C  0.23443741  0.43411296  0.35911857    -0.04010
C1568       C  0.19852158  0.41112954  0.37193346    -0.08460
C1569       C  0.17556649  0.38646087  0.34297998     0.05070
C1570       C  0.19342346  0.38028944  0.30329430    -0.03480
Br1571     Br  0.17979100  0.33311345  0.26821647    -0.03180
H1572       H  0.23837766  0.39795004  0.26009512     0.08980
H1573       H  0.18717562  0.41468313  0.40358792     0.07000
Br1574     Br  0.26175744  0.47006490  0.39918098    -0.03610
C1575       C  0.35349620  0.55623358  0.20244323    -0.10240
C1576       C  0.32442039  0.57466126  0.17557086     0.05950
C1577       C  0.28163399  0.57097361  0.18584071    -0.04010
C1578       C  0.26857242  0.54384619  0.21766842    -0.08460
C1579       C  0.29761954  0.52238482  0.24213468     0.05070
C1580       C  0.34035421  0.53264904  0.23688923    -0.03480
Br1581     Br  0.38159771  0.51896827  0.27780501    -0.03180
H1582       H  0.38656764  0.55986368  0.19662047     0.08980
H1583       H  0.23555503  0.53860746  0.22247595     0.07000
Br1584     Br  0.23935838  0.60286402  0.15875589    -0.03610
C1585       C  0.20360608  0.58923131  0.31974452    -0.10240
C1586       C  0.16714285  0.57423324  0.33958161     0.05950
C1587       C  0.16564436  0.53128149  0.34987194    -0.04010
C1588       C  0.18882433  0.50401642  0.32580667    -0.08460
C1589       C  0.22826850  0.51605879  0.31031663     0.05070
C1590       C  0.23680226  0.56071301  0.31164861    -0.03480
Br1591     Br  0.29146131  0.58517128  0.31468017    -0.03180
H1592       H  0.20795748  0.62295168  0.31529148     0.08980
H1593       H  0.17651713  0.47251333  0.32224900     0.07000
Br1594     Br  0.12624985  0.50778404  0.38907849    -0.03610
C1595       C  0.33851362  0.42980500  0.23898973    -0.10240
C1596       C  0.29741882  0.44502429  0.23758030     0.05950
C1597       C  0.27227287  0.43264646  0.20337104    -0.04010
C1598       C  0.28695959  0.40319473  0.17460126    -0.08460
C1599       C  0.32942028  0.39216288  0.17296153     0.05070
C1600       C  0.35568182  0.40769278  0.20491730    -0.03480
Br1601     Br  0.41503883  0.40825880  0.19950549    -0.03180
H1602       H  0.35862107  0.43870736  0.26446602     0.08980
H1603       H  0.26549741  0.39198075  0.15094525     0.07000
Br1604     Br  0.21655175  0.45329423  0.19478439    -0.03610
C1605       C  0.21797081  0.32540950  0.54246442    -0.10240
C1606       C  0.21956945  0.28067378  0.54208718     0.05950
C1607       C  0.19624932  0.25844906  0.57288849    -0.04010
C1608       C  0.16808851  0.28055638  0.59781993    -0.08460
C1609       C  0.16297691  0.32432980  0.59388610     0.05070
C1610       C  0.18890325  0.34709733  0.56686380    -0.03480
Br1611     Br  0.18143170  0.40656394  0.55798145    -0.03180
H1612       H  0.23565155  0.34321996  0.51961953     0.08980
H1613       H  0.14820742  0.26313148  0.61914210     0.07000
Br1614     Br  0.19509542  0.19838128  0.58163869    -0.03610
C1615       C  0.33349070  0.21695528  0.46244690    -0.10240
C1616       C  0.29016992  0.22262085  0.45697697     0.05950
C1617       C  0.27129677  0.19885217  0.42368618    -0.04010
C1618       C  0.29555051  0.17119222  0.39906982    -0.08460
C1619       C  0.33574815  0.15975454  0.41151506     0.05070
C1620       C  0.35307611  0.18112349  0.44589635    -0.03480
Br1621     Br  0.39148674  0.15330937  0.48199646    -0.03180
H1622       H  0.34877223  0.23274562  0.48844322     0.08980
H1623       H  0.28062218  0.15297989  0.37441459     0.07000
Br1624     Br  0.21283801  0.19137469  0.41472062    -0.03610
C1625       C  0.26922728  0.16805507  0.52655780    -0.10240
C1626       C  0.27995485  0.20996505  0.53217979     0.05950
C1627       C  0.30410059  0.22215679  0.56649667    -0.04010
C1628       C  0.31883256  0.19092089  0.59355171    -0.08460
C1629       C  0.31282930  0.14693036  0.58524629     0.05070
C1630       C  0.28363679  0.13699983  0.55239636    -0.03480
Br1631     Br  0.25522530  0.08583835  0.53667413    -0.03180
H1632       H  0.24858287  0.15969900  0.50089078     0.08980
H1633       H  0.33484163  0.20262174  0.62044090     0.07000
Br1634     Br  0.32003531  0.28003132  0.57596504    -0.03610
C1635       C  0.22625516  0.30259884  0.43591941    -0.10240
C1636       C  0.20909515  0.27604464  0.46594978     0.05950
C1637       C  0.16686460  0.26502776  0.46346590    -0.04010
C1638       C  0.14219968  0.28348363  0.43387235    -0.08460
C1639       C  0.15735431  0.31321158  0.40461948     0.05070
C1640       C  0.20193276  0.31653327  0.40254238    -0.03480
Br1641     Br  0.23389622  0.30844644  0.35284476    -0.03180
H1642       H  0.25968161  0.30789724  0.43573695     0.08980
H1643       H  0.11050350  0.27316774  0.43518029     0.07000
Br1644     Br  0.14024931  0.22175505  0.49610074    -0.03610
loop_ 
_geom_bond_atom_site_label_1 
_geom_bond_atom_site_label_2 
_geom_bond_distance 
_geom_bond_site_symmetry_2 
_ccdc_geom_bond_type 
C1            C2   1.362       .  D
C1         C1616   1.528       .  S
C1         C1626   1.467       .  S
C2         C1606   1.503       .  S
C2         C1636   1.466       .  S
C3            C4   1.390       .  D
C3         C1566   1.541       .  S
C3         C1589   1.539       .  S
C4         C1579   1.497       .  S
C4         C1596   1.498       .  S
C5            C6   1.348       .  D
C5         C1526   1.481       .  S
C5         C1549   1.495       .  S
C6         C1536   1.482       .  S
C6         C1556   1.503       .  S
C7            C8   1.382       .  D
C7         C1499   1.522       .  S
C7         C1516   1.504   1_554  S
C8         C1489   1.532   1_554  S
C8         C1506   1.536       .  S
C9           C10   1.362       .  D
C9         C1456   1.504       .  S
C9         C1466   1.501   1_655  S
C10        C1446   1.487   1_655  S
C10        C1476   1.491       .  S
C11          C12   1.384       .  D
C11        C1416   1.527   1_565  S
C11        C1436   1.540       .  S
C12        C1406   1.503       .  S
C12        C1426   1.517   1_565  S
C13          C14   1.370       .  D
C13        C1386   1.480       .  S
C13        C1396   1.501       .  S
C14        C1369   1.491       .  S
C14        C1379   1.524       .  S
C15          C16   1.388       .  D
C15        C1346   1.496       .  S
C15        C1356   1.521       .  S
C16        C1329   1.504       .  S
C16        C1339   1.550       .  S
C17          C18   1.374       .  D
C17        C1286   1.529       .  S
C17        C1296   1.531       .  S
C18        C1306   1.484       .  S
C18        C1316   1.493       .  S
C19          C20   1.387       .  D
C19        C1266   1.523       .  S
C19        C1276   1.547       .  S
C20        C1246   1.491       .  S
C20        C1259   1.551       .  S
C21          C22   1.363       .  D
C21        C1226   1.483       .  S
C21        C1236   1.476       .  S
C22        C1206   1.521       .  S
C22        C1219   1.519       .  S
C23          C24   1.370       .  D
C23        C1186   1.507       .  S
C23        C1196   1.520       .  S
C24        C1169   1.491       .  S
C24        C1179   1.485       .  S
C25          C26   1.389       .  D
C25        C1146   1.494   1_556  S
C25        C1156   1.540       .  S
C26        C1129   1.537   1_556  S
C26        C1136   1.489       .  S
C27          C28   1.398       .  D
C27        C1086   1.526   1_556  S
C27        C1099   1.536       .  S
C28        C1106   1.514   1_556  S
C28        C1116   1.506       .  S
C29          C30   1.382       .  D
C29        C1066   1.510       .  S
C29        C1076   1.522   1_655  S
C30        C1046   1.530   1_655  S
C30        C1059   1.517       .  S
C31          C32   1.385       .  D
C31        C1029   1.543   1_565  S
C31        C1036   1.534       .  S
C32        C1009   1.509       .  S
C32        C1016   1.505   1_565  S
C33          C34   1.392       .  D
C33         C986   1.524   1_655  S
C33         C996   1.506       .  S
C34         C966   1.549       .  S
C34         C976   1.517   1_655  S
C35          C36   1.385       .  D
C35         C926   1.504   1_565  S
C35         C936   1.512       .  S
C36         C946   1.531       .  S
C36         C956   1.540   1_565  S
N37          N38   1.325       .  A
N37          N43   1.315       .  A
N37         Mn66   2.217       .  S
N38          C45   1.356       .  A
N39          N41   1.310       .  A
N39          N40   1.318       .  A
N39         Mn55   2.182   1_554  S
N40          C46   1.347       .  A
N41          N42   1.323       .  A
N41         Mn66   2.198   1_554  S
N42          C46   1.355       .  A
N43          N44   1.325       .  A
N43         Mn55   2.227       .  S
N44          C45   1.355       .  A
C45         C651   1.496       .  S
C46         C681   1.481       .  S
N47          N53   1.320       .  A
N47          N48   1.340       .  A
N47         Mn77   2.274   1_554  S
N48          C56   1.371       .  A
N49          N50   1.298       .  A
N49          N51   1.313       .  A
N49         Mn55   2.167       .  S
N50          C57   1.338       .  A
N51          N52   1.339       .  A
N51         Mn77   2.235       .  S
N52          C57   1.368       .  A
N53          N54   1.307       .  A
N53         Mn55   2.194   1_554  S
N54          C56   1.342       .  A
Mn55        Cl79   2.463       .  S
C56         C648   1.514       .  S
C57         C180   1.508       .  S
N58          N59   1.318       .  A
N58          N64   1.317       .  A
N58         Mn66   2.181   1_554  S
N59          C67   1.348       .  A
N60          N62   1.311       .  A
N60          N61   1.314       .  A
N60         Mn78   2.155       .  S
N61          C68   1.345       .  A
N62          N63   1.318       .  A
N62         Mn66   2.181       .  S
N63          C68   1.355       .  A
N64          N65   1.320       .  A
N64         Mn78   2.216   1_554  S
N65          C67   1.355       .  A
Mn66        Cl79   2.597       .  S
C67         C683   1.482       .  S
C68         C637   1.466       .  S
N69          N70   1.333       .  A
N69          N75   1.317       .  A
N69         Mn77   2.247       .  S
N70          C80   1.366       .  A
N71          N72   1.314       .  A
N71          N73   1.319       .  A
N71         Mn78   2.187   1_554  S
N72          C81   1.344       .  A
N73          N74   1.337       .  A
N73         Mn77   2.274   1_554  S
N74          C81   1.369       .  A
N75          N76   1.313       .  A
N75         Mn78   2.215       .  S
N76          C80   1.354       .  A
Mn77        Cl79   2.647       .  S
Mn78        Cl79   2.471       .  S
C80         C176   1.507       .  S
C81         C649   1.507       .  S
N82          N83   1.332       .  A
N82          N88   1.313       .  A
N82        Mn111   2.228       .  S
N83          C90   1.364       .  A
N84          N86   1.312       .  A
N84          N85   1.338       .  A
N84        Mn100   2.258       .  S
N85          C91   1.371       .  A
N86          N87   1.300       .  A
N86        Mn111   2.136       .  S
N87          C91   1.336       .  A
N88          N89   1.306       .  A
N88        Mn100   2.179       .  S
N89          C90   1.346       .  A
C90         C127   1.500       .  S
C91         C640   1.500       .  S
N92          N98   1.316       .  A
N92          N93   1.311       .  A
N92        Mn122   2.184       .  S
N93         C101   1.343       .  A
N94          N95   1.307       .  A
N94          N96   1.313       .  A
N94        Mn100   2.183   1_554  S
N95         C102   1.348       .  A
N96          N97   1.337       .  A
N96        Mn122   2.240       .  S
N97         C102   1.367       .  A
N98          N99   1.332       .  A
N98        Mn100   2.243   1_554  S
N99         C101   1.368       .  A
Mn100      Cl124   2.516       .  S
C101        C678   1.504       .  S
C102        C183   1.508       .  S
N103        N104   1.313       .  A
N103        N109   1.312       .  A
N103       Mn111   2.183       .  S
N104        C112   1.348       .  A
N105        N107   1.305       .  A
N105        N106   1.293       .  A
N105       Mn123   2.200       .  S
N106        C113   1.336       .  A
N107        N108   1.344       .  A
N107       Mn111   2.213       .  S
N108        C113   1.373       .  A
N109        N110   1.331       .  A
N109       Mn123   2.242       .  S
N110        C112   1.366       .  A
Mn111      Cl124   2.558       .  S
C112        C645   1.506       .  S
C113        C178   1.532       .  S
N114        N115   1.332       .  A
N114        N120   1.313       .  A
N114       Mn122   2.215       .  S
N115        C125   1.364       .  A
N116        N117   1.341       .  A
N116        N118   1.312       .  A
N116       Mn123   2.257   1_554  S
N117        C126   1.372       .  A
N118        N119   1.302       .  A
N118       Mn122   2.160       .  S
N119        C126   1.341       .  A
N120        N121   1.309       .  A
N120       Mn123   2.193   1_554  S
N121        C125   1.343       .  A
Mn122      Cl124   2.539   1_554  S
Mn123      Cl124   2.493       .  S
C125        C130   1.492       .  S
C126        C680   1.507       .  S
C127        C128   1.370       .  D
C127       C1119   1.520       .  S
C128        C139   1.513       .  S
C128       C1069   1.517       .  S
C129        C130   1.355       .  D
C129        C204   1.494       .  S
C129        C969   1.492       .  S
C130        C919   1.516       .  S
N131        N132   1.332       .  A
N131        N137   1.315       .  A
N131       Mn160   2.240       .  S
N132        C139   1.366       .  A
N133        N135   1.313       .  A
N133        N134   1.310       .  A
N133       Mn149   2.188   1_455  S
N134        C140   1.339       .  A
N135        N136   1.338       .  A
N135       Mn160   2.258   1_455  S
N136        C140   1.371       .  A
N137        N138   1.315       .  A
N137       Mn149   2.225       .  S
N138        C139   1.355       .  A
C140        C177   1.507       .  S
N141        N147   1.315       .  A
N141        N142   1.318       .  A
N141       Mn171   2.195   1_455  S
N142        C150   1.353       .  A
N143        N144   1.312       .  A
N143        N145   1.311       .  A
N143       Mn149   2.137       .  S
N144        C151   1.345       .  A
N145        N146   1.318       .  A
N145       Mn171   2.193       .  S
N146        C151   1.357       .  A
N147        N148   1.316       .  A
N147       Mn149   2.179   1_455  S
N148        C150   1.349       .  A
Mn149      Cl173   2.457       .  S
C150        C620   1.473       .  S
C151        C631   1.467       .  S
N152        N153   1.335       .  A
N152        N158   1.318       .  A
N152       Mn160   2.233   1_455  S
N153        C161   1.365       .  A
N154        N156   1.316       .  A
N154        N155   1.306       .  A
N154       Mn172   2.219       .  S
N155        C162   1.345       .  A
N156        N157   1.341       .  A
N156       Mn160   2.248       .  S
N157        C162   1.369       .  A
N158        N159   1.306       .  A
N158       Mn172   2.214   1_455  S
N159        C161   1.349       .  A
Mn160      Cl173   2.669       .  S
C161        C181   1.502       .  S
C162        C179   1.529       .  S
N163        N164   1.323       .  A
N163        N169   1.315       .  A
N163       Mn171   2.202       .  S
N164        C174   1.354       .  A
N165        N166   1.323       .  A
N165        N167   1.313       .  A
N165       Mn172   2.213   1_455  S
N166        C175   1.354       .  A
N167        N168   1.321       .  A
N167       Mn171   2.197   1_455  S
N168        C175   1.353       .  A
N169        N170   1.321       .  A
N169       Mn172   2.229       .  S
N170        C174   1.353       .  A
Mn171      Cl173   2.603       .  S
Mn172      Cl173   2.457       .  S
C174        C658   1.481       .  S
C175        C664   1.479       .  S
C176        C177   1.367       .  D
C176       C1486   1.514       .  S
C177       C1079   1.517       .  S
C178        C179   1.374       .  D
C178        C896   1.546       .  S
C179        C909   1.526       .  S
C180        C181   1.369       .  D
C180       C1139   1.539       .  S
C181        C889   1.489       .  S
C182        C183   1.379       .  D
C182        C227   1.523       .  S
C182       C1479   1.549       .  S
C183       C1109   1.500       .  S
N184        N185   1.335       .  A
N184        N190   1.316       .  A
N184       Mn213   2.238       .  S
N185        C192   1.367       .  A
N186        N188   1.316       .  A
N186        N187   1.342       .  A
N186       Mn202   2.234   1_455  S
N187        C193   1.369       .  A
N188        N189   1.293       .  A
N188       Mn213   2.180       .  S
N189        C193   1.342       .  A
N190        N191   1.312       .  A
N190       Mn202   2.206   1_455  S
N191        C192   1.347       .  A
C192        C647   1.511       .  S
C193        C653   1.518       .  S
N194        N200   1.314       .  A
N194        N195   1.312       .  A
N194       Mn224   2.189       .  S
N195        C203   1.340       .  A
N196        N197   1.298       .  A
N196        N198   1.312       .  A
N196       Mn202   2.148       .  S
N197        C204   1.338       .  A
N198        N199   1.337       .  A
N198       Mn224   2.239       .  S
N199        C204   1.370       .  A
N200        N201   1.339       .  A
N200       Mn202   2.265       .  S
N201        C203   1.371       .  A
Mn202      Cl226   2.531       .  S
C203        C655   1.511       .  S
N205        N206   1.322       .  A
N205        N211   1.318       .  A
N205       Mn213   2.218       .  S
N206        C214   1.353       .  A
N207        N209   1.311       .  A
N207        N208   1.303       .  A
N207       Mn225   2.146   1_455  S
N208        C215   1.335       .  A
N209        N210   1.334       .  A
N209       Mn213   2.244       .  S
N210        C215   1.371       .  A
N211        N212   1.339       .  A
N211       Mn225   2.295   1_455  S
N212        C214   1.372       .  A
Mn213      Cl226   2.559   1_455  S
C214        C628   1.536       .  S
C215        C650   1.488       .  S
N216        N217   1.338       .  A
N216        N222   1.312       .  A
N216       Mn224   2.252       .  S
N217        C227   1.370       .  A
N218        N219   1.340       .  A
N218        N220   1.308       .  A
N218       Mn225   2.212       .  S
N219        C228   1.372       .  A
N220        N221   1.288       .  A
N220       Mn224   2.164       .  S
N221        C228   1.328       .  A
N222        N223   1.314       .  A
N222       Mn225   2.207       .  S
N223        C227   1.350       .  A
Mn224      Cl226   2.527       .  S
Mn225      Cl226   2.526       .  S
C228        C621   1.518       .  S
N229        N230   1.306       .  A
N229        N235   1.317       .  A
N229       Mn258   2.190       .  S
N230        C237   1.341       .  A
N231        N233   1.314       .  A
N231        N232   1.334       .  A
N231       Mn247   2.230       .  S
N232        C238   1.366       .  A
N233        N234   1.305       .  A
N233       Mn258   2.190   1_554  S
N234        C238   1.346       .  A
N235        N236   1.340       .  A
N235       Mn247   2.260   1_556  S
N236        C237   1.371       .  A
C237        C373   1.518       .  S
C238        C633   1.497       .  S
N239        N245   1.316       .  A
N239        N240   1.313       .  A
N239       Mn269   2.199       .  S
N240        C248   1.351       .  A
N241        N242   1.338       .  A
N241        N243   1.317       .  A
N241       Mn247   2.267   1_556  S
N242        C249   1.371       .  A
N243        N244   1.309       .  A
N243       Mn269   2.185   1_556  S
N244        C249   1.340       .  A
N245        N246   1.333       .  A
N245       Mn247   2.251       .  S
N246        C248   1.366       .  A
Mn247      Cl271   2.650   1_554  S
C248        C635   1.504       .  S
C249        C321   1.513       .  S
N250        N251   1.314       .  A
N250        N256   1.312       .  A
N250       Mn258   2.151   1_554  S
N251        C259   1.345       .  A
N252        N254   1.315       .  A
N252        N253   1.326       .  A
N252       Mn270   2.227       .  S
N253        C260   1.359       .  A
N254        N255   1.316       .  A
N254       Mn258   2.181       .  S
N255        C260   1.349       .  A
N256        N257   1.325       .  A
N256       Mn270   2.227   1_554  S
N257        C259   1.365       .  A
Mn258      Cl271   2.458       .  S
C259        C684   1.488       .  S
C260        C638   1.498       .  S
N261        N262   1.320       .  A
N261        N267   1.316       .  A
N261       Mn269   2.188   1_556  S
N262        C272   1.347       .  A
N263        N264   1.329       .  A
N263        N265   1.315       .  A
N263       Mn270   2.251   1_554  S
N264        C273   1.364       .  A
N265        N266   1.315       .  A
N265       Mn269   2.171       .  S
N266        C273   1.344       .  A
N267        N268   1.323       .  A
N267       Mn270   2.225       .  S
N268        C272   1.356       .  A
Mn269      Cl271   2.473   1_554  S
Mn270      Cl271   2.609       .  S
C272        C639   1.475       .  S
C273        C677   1.487       .  S
N274        N275   1.308       .  A
N274        N280   1.312       .  A
N274       Mn303   2.203       .  S
N275        C282   1.347       .  A
N276        N278   1.316       .  A
N276        N277   1.334       .  A
N276       Mn292   2.222   1_545  S
N277        C283   1.361       .  A
N278        N279   1.316       .  A
N278       Mn303   2.236   1_545  S
N279        C283   1.347       .  A
N280        N281   1.328       .  A
N280       Mn292   2.214       .  S
N281        C282   1.364       .  A
C282        C319   1.490       .  S
C283        C372   1.503       .  S
N284        N290   1.316       .  A
N284        N285   1.315       .  A
N284       Mn314   2.231   1_545  S
N285        C293   1.353       .  A
N286        N287   1.335       .  A
N286        N288   1.315       .  A
N286       Mn292   2.217       .  S
N287        C294   1.361       .  A
N288        N289   1.315       .  A
N288       Mn314   2.240       .  S
N289        C294   1.348       .  A
N290        N291   1.330       .  A
N290       Mn292   2.231   1_545  S
N291        C293   1.364       .  A
Mn292      Cl316   2.652       .  S
C293        C322   1.506       .  S
C294        C324   1.494       .  S
N295        N296   1.322       .  A
N295        N301   1.317       .  A
N295       Mn303   2.215   1_545  S
N296        C304   1.355       .  A
N297        N299   1.310       .  A
N297        N298   1.328       .  A
N297       Mn315   2.227       .  S
N298        C305   1.362       .  A
N299        N300   1.318       .  A
N299       Mn303   2.177       .  S
N300        C305   1.347       .  A
N301        N302   1.324       .  A
N301       Mn315   2.226   1_545  S
N302        C304   1.356       .  A
Mn303      Cl316   2.461       .  S
C304        C630   1.497       .  S
C305        C618   1.498       .  S
N306        N307   1.325       .  A
N306        N312   1.319       .  A
N306       Mn314   2.245       .  S
N307        C317   1.358       .  A
N308        N309   1.316       .  A
N308        N310   1.313       .  A
N308       Mn315   2.200   1_545  S
N309        C318   1.355       .  A
N310        N311   1.313       .  A
N310       Mn314   2.138   1_545  S
N311        C318   1.342       .  A
N312        N313   1.316       .  A
N312       Mn315   2.174       .  S
N313        C317   1.347       .  A
Mn314      Cl316   2.468       .  S
Mn315      Cl316   2.600       .  S
C317        C662   1.477       .  S
C318        C660   1.472       .  S
C319        C320   1.376       .  D
C319       C1039   1.535       .  S
C320        C333   1.504       .  S
C320       C1159   1.500       .  S
C321        C322   1.374       .  D
C321       C1096   1.518       .  S
C322        C879   1.530       .  S
C323        C324   1.380       .  D
C323        C356   1.526       .  S
C323        C866   1.499       .  S
C324        C856   1.513       .  S
N325        N326   1.334       .  A
N325        N331   1.316       .  A
N325       Mn354   2.240       .  S
N326        C333   1.366       .  A
N327        N329   1.308       .  A
N327        N328   1.301       .  A
N327       Mn343   2.201   1_554  S
N328        C334   1.333       .  A
N329        N330   1.344       .  A
N329       Mn354   2.264   1_554  S
N330        C334   1.378       .  A
N331        N332   1.315       .  A
N331       Mn343   2.213       .  S
N332        C333   1.348       .  A
C334        C371   1.542       .  S
N335        N341   1.311       .  A
N335        N336   1.316       .  A
N335       Mn365   2.209   1_554  S
N336        C344   1.353       .  A
N337        N338   1.325       .  A
N337        N339   1.315       .  A
N337       Mn343   2.216       .  S
N338        C345   1.357       .  A
N339        N340   1.319       .  A
N339       Mn365   2.212       .  S
N340        C345   1.354       .  A
N341        N342   1.323       .  A
N341       Mn343   2.182   1_554  S
N342        C344   1.351       .  A
Mn343      Cl367   2.445       .  S
C344        C682   1.496       .  S
C345        C652   1.499       .  S
N346        N347   1.336       .  A
N346        N352   1.318       .  A
N346       Mn354   2.254   1_554  S
N347        C355   1.367       .  A
N348        N350   1.320       .  A
N348        N349   1.318       .  A
N348       Mn366   2.255       .  S
N349        C356   1.357       .  A
N350        N351   1.339       .  A
N350       Mn354   2.263       .  S
N351        C356   1.367       .  A
N352        N353   1.309       .  A
N352       Mn366   2.201   1_554  S
N353        C355   1.346       .  A
Mn354      Cl367   2.682       .  S
C355        C374   1.514       .  S
N357        N358   1.325       .  A
N357        N363   1.317       .  A
N357       Mn365   2.242       .  S
N358        C368   1.357       .  A
N359        N360   1.332       .  A
N359        N361   1.318       .  A
N359       Mn366   2.258   1_554  S
N360        C369   1.362       .  A
N361        N362   1.324       .  A
N361       Mn365   2.240   1_554  S
N362        C369   1.354       .  A
N363        N364   1.320       .  A
N363       Mn366   2.196       .  S
N364        C368   1.350       .  A
Mn365      Cl367   2.628       .  S
Mn366      Cl367   2.478       .  S
C368        C646   1.492       .  S
C369        C679   1.511       .  S
C370        C371   1.385       .  D
C370        C384   1.530       .  S
C370       C1409   1.513       .  S
C371       C1149   1.589       .  S
C372        C373   1.375       .  D
C372       C1026   1.505       .  S
C373       C1519   1.534       .  S
C374        C375   1.350       .  D
C374        C846   1.498       .  S
C375        C407   1.492       .  S
C375        C939   1.513       .  S
N376        N377   1.341       .  A
N376        N382   1.313       .  A
N376       Mn405   2.232       .  S
N377        C384   1.368       .  A
N378        N380   1.317       .  A
N378        N379   1.306       .  A
N378       Mn394   2.198   1_545  S
N379        C385   1.345       .  A
N380        N381   1.335       .  A
N380       Mn405   2.240   1_545  S
N381        C385   1.366       .  A
N382        N383   1.302       .  A
N382       Mn394   2.211       .  S
N383        C384   1.346       .  A
C385        C634   1.500       .  S
N386        N392   1.313       .  A
N386        N387   1.322       .  A
N386       Mn416   2.196   1_545  S
N387        C395   1.353       .  A
N388        N389   1.320       .  A
N388        N390   1.314       .  A
N388       Mn394   2.202       .  S
N389        C396   1.350       .  A
N390        N391   1.324       .  A
N390       Mn416   2.212       .  S
N391        C396   1.356       .  A
N392        N393   1.321       .  A
N392       Mn394   2.209   1_545  S
N393        C395   1.354       .  A
Mn394      Cl418   2.461       .  S
C395        C624   1.483       .  S
C396        C626   1.492       .  S
N397        N398   1.336       .  A
N397        N403   1.318       .  A
N397       Mn405   2.242   1_545  S
N398        C406   1.365       .  A
N399        N401   1.316       .  A
N399        N400   1.309       .  A
N399       Mn417   2.189       .  S
N400        C407   1.347       .  A
N401        N402   1.330       .  A
N401       Mn405   2.238       .  S
N402        C407   1.365       .  A
N403        N404   1.313       .  A
N403       Mn417   2.223   1_545  S
N404        C406   1.351       .  A
Mn405      Cl418   2.647       .  S
C406        C636   1.515       .  S
N408        N409   1.321       .  A
N408        N414   1.311       .  A
N408       Mn416   2.193       .  S
N409        C419   1.353       .  A
N410        N411   1.316       .  A
N410        N412   1.316       .  A
N410       Mn417   2.193   1_545  S
N411        C420   1.352       .  A
N412        N413   1.324       .  A
N412       Mn416   2.219   1_545  S
N413        C420   1.356       .  A
N414        N415   1.316       .  A
N414       Mn417   2.171       .  S
N415        C419   1.348       .  A
Mn416      Cl418   2.600       .  S
Mn417      Cl418   2.473       .  S
C419        C642   1.481       .  S
C420        C643   1.491       .  S
N421        N422   1.320       .  A
N421        N427   1.316       .  A
N421       Mn450   2.200       .  S
N422        C429   1.353       .  A
N423        N425   1.315       .  A
N423        N424   1.317       .  A
N423       Mn439   2.178   1_545  S
N424        C430   1.347       .  A
N425        N426   1.324       .  A
N425       Mn450   2.222   1_545  S
N426        C430   1.356       .  A
N427        N428   1.322       .  A
N427       Mn439   2.219       .  S
N428        C429   1.355       .  A
C429        C625   1.486       .  S
C430        C623   1.475       .  S
N431        N437   1.318       .  A
N431        N432   1.336       .  A
N431       Mn461   2.274   1_545  S
N432        C440   1.370       .  A
N433        N434   1.312       .  A
N433        N435   1.318       .  A
N433       Mn439   2.201       .  S
N434        C441   1.347       .  A
N435        N436   1.336       .  A
N435       Mn461   2.258       .  S
N436        C441   1.367       .  A
N437        N438   1.318       .  A
N437       Mn439   2.225   1_545  S
N438        C440   1.356       .  A
Mn439      Cl463   2.495       .  S
C440        C614   1.530       .  S
C441        C611   1.506       .  S
N442        N443   1.318       .  A
N442        N448   1.316       .  A
N442       Mn450   2.197   1_545  S
N443        C451   1.352       .  A
N444        N446   1.314       .  A
N444        N445   1.313       .  A
N444       Mn462   2.165       .  S
N445        C452   1.344       .  A
N446        N447   1.326       .  A
N446       Mn450   2.222       .  S
N447        C452   1.359       .  A
N448        N449   1.317       .  A
N448       Mn462   2.174   1_545  S
N449        C451   1.349       .  A
Mn450      Cl463   2.591       .  S
C451        C629   1.463       .  S
C452        C617   1.476       .  S
N453        N454   1.336       .  A
N453        N459   1.316       .  A
N453       Mn461   2.288       .  S
N454        C464   1.374       .  A
N455        N456   1.314       .  A
N455        N457   1.318       .  A
N455       Mn462   2.236   1_545  S
N456        C465   1.354       .  A
N457        N458   1.338       .  A
N457       Mn461   2.246   1_545  S
N458        C465   1.366       .  A
N459        N460   1.311       .  A
N459       Mn462   2.169       .  S
N460        C464   1.342       .  A
Mn461      Cl463   2.633       .  S
Mn462      Cl463   2.493       .  S
C464        C607   1.506       .  S
C465        C616   1.518       .  S
N466        N467   1.329       .  A
N466        N472   1.313       .  A
N466       Mn495   2.257   1_455  S
N467        C474   1.368       .  A
N468        N470   1.317       .  A
N468        N469   1.322       .  A
N468       Mn484   2.217       .  S
N469        C475   1.358       .  A
N470        N471   1.321       .  A
N470       Mn495   2.216       .  S
N471        C475   1.354       .  A
N472        N473   1.322       .  A
N472       Mn484   2.185   1_455  S
N473        C474   1.353       .  A
C474        C627   1.504       .  S
C475        C622   1.493       .  S
N476        N482   1.319       .  A
N476        N477   1.338       .  A
N476       Mn506   2.234       .  S
N477        C485   1.365       .  A
N478        N479   1.318       .  A
N478        N480   1.316       .  A
N478       Mn484   2.236   1_455  S
N479        C486   1.355       .  A
N480        N481   1.324       .  A
N480       Mn506   2.208   1_455  S
N481        C486   1.356       .  A
N482        N483   1.311       .  A
N482       Mn484   2.236       .  S
N483        C485   1.350       .  A
Mn484      Cl508   2.493       .  S
C485        C511   1.515       .  S
C486        C613   1.499       .  S
N487        N488   1.328       .  A
N487        N493   1.319       .  A
N487       Mn495   2.243       .  S
N488        C496   1.358       .  A
N489        N491   1.317       .  A
N489        N490   1.317       .  A
N489       Mn507   2.185   1_455  S
N490        C497   1.346       .  A
N491        N492   1.327       .  A
N491       Mn495   2.236   1_455  S
N492        C497   1.360       .  A
N493        N494   1.321       .  A
N493       Mn507   2.217       .  S
N494        C496   1.354       .  A
Mn495      Cl508   2.592       .  S
C496        C632   1.513       .  S
C497        C619   1.490       .  S
N498        N499   1.334       .  A
N498        N504   1.314       .  A
N498       Mn506   2.239   1_455  S
N499        C509   1.364       .  A
N500        N501   1.318       .  A
N500        N502   1.317       .  A
N500       Mn507   2.226       .  S
N501        C510   1.353       .  A
N502        N503   1.338       .  A
N502       Mn506   2.267       .  S
N503        C510   1.369       .  A
N504        N505   1.318       .  A
N504       Mn507   2.236   1_455  S
N505        C509   1.361       .  A
Mn506      Cl508   2.639       .  S
Mn507      Cl508   2.501       .  S
C509        C615   1.514       .  S
C510        C609   1.526       .  S
C511        C512   1.374       .  D
C511       C1459   1.495       .  S
C512        C521   1.493       .  S
C512        C959   1.518       .  S
N513        N514   1.312       .  A
N513        N519   1.314       .  A
N513       Mn542   2.223   1_545  S
N514        C521   1.347       .  A
N515        N517   1.314       .  A
N515        N516   1.330       .  A
N515       Mn531   2.223       .  S
N516        C522   1.365       .  A
N517        N518   1.310       .  A
N517       Mn542   2.211       .  S
N518        C522   1.349       .  A
N519        N520   1.333       .  A
N519       Mn531   2.201   1_545  S
N520        C521   1.359       .  A
C522        C606   1.498       .  S
N523        N529   1.315       .  A
N523        N524   1.310       .  A
N523       Mn553   2.216       .  S
N524        C532   1.351       .  A
N525        N526   1.331       .  A
N525        N527   1.317       .  A
N525       Mn531   2.228   1_545  S
N526        C533   1.363       .  A
N527        N528   1.313       .  A
N527       Mn553   2.235   1_545  S
N528        C533   1.357       .  A
N529        N530   1.335       .  A
N529       Mn531   2.219       .  S
N530        C532   1.361       .  A
Mn531      Cl555   2.651       .  S
C532        C559   1.506       .  S
C533        C610   1.504       .  S
N534        N535   1.316       .  A
N534        N540   1.310       .  A
N534       Mn542   2.167       .  S
N535        C543   1.348       .  A
N536        N538   1.317       .  A
N536        N537   1.319       .  A
N536       Mn554   2.204   1_545  S
N537        C544   1.352       .  A
N538        N539   1.322       .  A
N538       Mn542   2.215   1_545  S
N539        C544   1.355       .  A
N540        N541   1.321       .  A
N540       Mn554   2.193       .  S
N541        C543   1.360       .  A
Mn542      Cl555   2.452       .  S
C543        C641   1.485       .  S
C544        C644   1.484       .  S
N545        N546   1.319       .  A
N545        N551   1.313       .  A
N545       Mn553   2.194   1_545  S
N546        C556   1.352       .  A
N547        N548   1.326       .  A
N547        N549   1.319       .  A
N547       Mn554   2.242       .  S
N548        C557   1.358       .  A
N549        N550   1.325       .  A
N549       Mn553   2.229       .  S
N550        C557   1.355       .  A
N551        N552   1.323       .  A
N551       Mn554   2.196   1_545  S
N552        C556   1.353       .  A
Mn553      Cl555   2.467       .  S
Mn554      Cl555   2.604       .  S
C556        C659   1.497       .  S
C557        C661   1.502       .  S
C558        C559   1.371       .  D
C558        C580   1.520       .  S
C558        C826   1.519       .  S
C559        C836   1.503       .  S
N560        N561   1.336       .  A
N560        N566   1.316       .  A
N560       Mn589   2.218       .  S
N561        C568   1.364       .  A
N562        N564   1.318       .  A
N562        N563   1.336       .  A
N562       Mn578   2.223   1_455  S
N563        C569   1.364       .  A
N564        N565   1.306       .  A
N564       Mn589   2.201       .  S
N565        C569   1.347       .  A
N566        N567   1.299       .  A
N566       Mn578   2.163   1_455  S
N567        C568   1.340       .  A
C568        C608   1.497       .  S
C569        C663   1.504       .  S
N570        N576   1.311       .  A
N570        N571   1.310       .  A
N570       Mn600   2.165       .  S
N571        C579   1.345       .  A
N572        N573   1.314       .  A
N572        N574   1.314       .  A
N572       Mn578   2.215       .  S
N573        C580   1.352       .  A
N574        N575   1.338       .  A
N574       Mn600   2.264       .  S
N575        C580   1.369       .  A
N576        N577   1.334       .  A
N576       Mn578   2.246       .  S
N577        C579   1.367       .  A
Mn578      Cl602   2.537       .  S
C579        C657   1.502       .  S
N581        N582   1.310       .  A
N581        N587   1.314       .  A
N581       Mn589   2.189       .  S
N582        C590   1.345       .  A
N583        N585   1.314       .  A
N583        N584   1.306       .  A
N583       Mn601   2.160   1_455  S
N584        C591   1.341       .  A
N585        N586   1.343       .  A
N585       Mn589   2.291       .  S
N586        C591   1.375       .  A
N587        N588   1.338       .  A
N587       Mn601   2.259   1_455  S
N588        C590   1.371       .  A
Mn589      Cl602   2.531   1_455  S
C590        C654   1.513       .  S
C591        C612   1.513       .  S
N592        N593   1.331       .  A
N592        N598   1.314       .  A
N592       Mn600   2.209       .  S
N593        C603   1.360       .  A
N594        N595   1.336       .  A
N594        N596   1.314       .  A
N594       Mn601   2.233       .  S
N595        C604   1.366       .  A
N596        N597   1.304       .  A
N596       Mn600   2.186       .  S
N597        C604   1.347       .  A
N598        N599   1.307       .  A
N598       Mn601   2.191       .  S
N599        C603   1.347       .  A
Mn600      Cl602   2.537       .  S
Mn601      Cl602   2.545       .  S
C603        C605   1.495       .  S
C604        C656   1.504       .  S
C605        C606   1.375       .  D
C605        C999   1.509       .  S
C606        C949   1.529       .  S
C607        C608   1.360       .  D
C607       C1006   1.517       .  S
C608        C819   1.506       .  S
C609        C610   1.370       .  D
C609       C1056   1.515       .  S
C610        C806   1.507       .  S
C611        C612   1.368       .  D
C611       C1439   1.523       .  S
C612        C989   1.504       .  S
C613        C614   1.380       .  D
C613       C1469   1.567       .  S
C614       C1419   1.494       .  S
C615        C616   1.379       .  D
C615       C1049   1.512       .  S
C616       C1019   1.507       .  S
C617        C618   1.375       .  D
C617       C1349   1.488       .  S
C618        C799   1.518       .  S
C619        C620   1.369       .  D
C619       C1609   1.465       .  S
C620       C1176   1.531       .  S
C621        C622   1.368       .  D
C621       C1279   1.536       .  S
C622       C1389   1.512       .  S
C623        C624   1.365       .  D
C623       C1619   1.494       .  S
C624       C1546   1.482       .  S
C625        C626   1.383       .  D
C625       C1359   1.491       .  S
C626       C1309   1.529       .  S
C627        C628   1.382       .  D
C627       C1639   1.548       .  S
C628       C1569   1.508       .  S
C629        C630   1.376       .  D
C629       C1629   1.533       .  S
C630       C1209   1.480       .  S
C631        C632   1.370       .  D
C631        C786   1.553       .  S
C632       C1399   1.466       .  S
C633        C634   1.376       .  D
C633       C1496   1.508       .  S
C634       C1429   1.516       .  S
C635        C636   1.366       .  D
C635       C1089   1.523       .  S
C636        C929   1.497       .  S
C637        C638   1.376       .  D
C637       C1189   1.539       .  S
C638       C1239   1.482       .  S
C639        C640   1.357       .  D
C639       C1229   1.500       .  S
C640        C776   1.495       .  S
C641        C642   1.379       .  D
C641        C769   1.537       .  S
C642       C1319   1.491       .  S
C643        C644   1.370       .  D
C643       C1529   1.535       .  S
C644       C1376   1.464       .  S
C645        C646   1.360       .  D
C645        C746   1.528       .  S
C646        C756   1.488       .  S
C647        C648   1.374       .  D
C647        C979   1.550       .  S
C648       C1126   1.504       .  S
C649        C650   1.363       .  D
C649       C1509   1.502       .  S
C650       C1449   1.533       .  S
C651        C652   1.364       .  D
C651       C1199   1.488       .  S
C652        C736   1.517       .  S
C653        C654   1.369       .  D
C653       C1586   1.503       .  S
C654       C1326   1.542       .  S
C655        C656   1.379       .  D
C655       C1269   1.541       .  S
C656        C726   1.506       .  S
C657        C658   1.364       .  D
C657        C706   1.524       .  S
C658        C716   1.471       .  S
C659        C660   1.361       .  D
C659       C1366   1.497       .  S
C660       C1216   1.502       .  S
C661        C662   1.375       .  D
C661        C696   1.486       .  S
C662        C686   1.532       .  S
C663        C664   1.361       .  D
C663       C1336   1.489       .  S
C664       C1166   1.495       .  S
C665        C666   1.386       .  D
C665        C886   1.501   1_655  S
C665        C906   1.519       .  S
C666        C816   1.557   1_655  S
C666        C829   1.495       .  S
C667        C668   1.378       .  D
C667        C809   1.566   1_565  S
C667        C839   1.483       .  S
C668        C859   1.557       .  S
C668        C876   1.470   1_565  S
C669        C670   1.381       .  D
C669        C849   1.497       .  S
C669        C869   1.523   1_554  S
C670        C899   1.522   1_554  S
C670        C916   1.532       .  S
C671        C672   1.354       .  D
C671        C689   1.468       .  S
C671        C796   1.494       .  S
C672        C739   1.477       .  S
C672        C759   1.502       .  S
C673        C674   1.367       .  D
C673        C749   1.485       .  S
C673        C779   1.525       .  S
C674        C719   1.525       .  S
C674        C789   1.489       .  S
C675        C676   1.370       .  D
C675        C699   1.528       .  S
C675        C766   1.497       .  S
C676        C709   1.497       .  S
C676        C729   1.530       .  S
C677        C678   1.368       .  D
C677       C1559   1.469       .  S
C678       C1249   1.550       .  S
C679        C680   1.375       .  D
C679       C1289   1.513       .  S
C680       C1256   1.511       .  S
C681        C682   1.368       .  D
C681       C1576   1.498       .  S
C682       C1299   1.507       .  S
C683        C684   1.374       .  D
C683       C1599   1.497       .  S
C684       C1539   1.531       .  S
C685        C686   1.427       .  A
C685        C690   1.407       .  A
C685        H692   1.064       .  S
C686        C687   1.430       .  A
C687        C688   1.367       .  A
C687       Br694   1.897       .  S
C688        C689   1.368       .  A
C688        H693   1.074       .  S
C689        C690   1.395       .  A
C690       Br691   1.914       .  S
C695        C696   1.402       .  A
C695        C700   1.397       .  A
C695        H702   1.083       .  S
C696        C697   1.405       .  A
C697        C698   1.408       .  A
C697       Br704   1.913       .  S
C698        C699   1.417       .  A
C698        H703   1.072       .  S
C699        C700   1.410       .  A
C700       Br701   1.909       .  S
C705        C706   1.413       .  A
C705        C710   1.399       .  A
C705        H712   1.084       .  S
C706        C707   1.428       .  A
C707        C708   1.401       .  A
C707       Br714   1.899       .  S
C708        C709   1.393       .  A
C708        H713   1.084       .  S
C709        C710   1.406       .  A
C710       Br711   1.905       .  S
C715        C716   1.393       .  A
C715        C720   1.401       .  A
C715        H722   1.085       .  S
C716        C717   1.399       .  A
C717        C718   1.387       .  A
C717       Br724   1.930       .  S
C718        C719   1.414       .  A
C718        H723   1.082       .  S
C719        C720   1.436       .  A
C720       Br721   1.908       .  S
C725        C726   1.411       .  A
C725        C730   1.415       .  A
C725        H732   1.084       .  S
C726        C727   1.408       .  A
C727        C728   1.389       .  A
C727       Br734   1.935       .  S
C728        C729   1.410       .  A
C728        H733   1.070       .  S
C729        C730   1.425       .  A
C730       Br731   1.915       .  S
C735        C736   1.417       .  A
C735        C740   1.400       .  A
C735        H742   1.061       .  S
C736        C737   1.392       .  A
C737        C738   1.370       .  A
C737       Br744   1.896       .  S
C738        C739   1.396       .  A
C738        H743   1.079       .  S
C739        C740   1.411       .  A
C740       Br741   1.916       .  S
C745        C746   1.415       .  A
C745        C750   1.405       .  A
C745        H752   1.063       .  S
C746        C747   1.399       .  A
C747        C748   1.395       .  A
C747       Br754   1.910       .  S
C748        C749   1.399       .  A
C748        H753   1.083       .  S
C749        C750   1.407       .  A
C750       Br751   1.919       .  S
C755        C756   1.393       .  A
C755        C760   1.394       .  A
C755        H762   1.080       .  S
C756        C757   1.410       .  A
C757        C758   1.400       .  A
C757       Br764   1.926       .  S
C758        C759   1.408       .  A
C758        H763   1.084       .  S
C759        C760   1.424       .  A
C760       Br761   1.912       .  S
C765        C766   1.411       .  A
C765        C770   1.420       .  A
C765        H772   1.082       .  S
C766        C767   1.398       .  A
C767        C768   1.370       .  A
C767       Br774   1.926       .  S
C768        C769   1.418       .  A
C768        H773   1.069       .  S
C769        C770   1.425       .  A
C770       Br771   1.906       .  S
C775        C776   1.402       .  A
C775        C780   1.405       .  A
C775        H782   1.085       .  S
C776        C777   1.411       .  A
C777        C778   1.393       .  A
C777       Br784   1.930       .  S
C778        C779   1.413       .  A
C778        H783   1.075       .  S
C779        C780   1.425       .  A
C780       Br781   1.911       .  S
C785        C786   1.425       .  A
C785        C790   1.369       .  A
C785        H792   1.068       .  S
C786        C787   1.437       .  A
C787        C788   1.418       .  A
C787       Br794   1.911       .  S
C788        C789   1.406       .  A
C788        H793   1.083       .  S
C789        C790   1.388       .  A
C790       Br791   1.924       .  S
C795        C796   1.399       .  A
C795        C800   1.391       .  A
C795        H802   1.081       .  S
C796        C797   1.421       .  A
C797        C798   1.403       .  A
C797       Br804   1.920       .  S
C798        C799   1.410       .  A
C798        H803   1.077       .  S
C799        C800   1.400       .  A
C800       Br801   1.907       .  S
C805        C806   1.412       .  A
C805        C810   1.424       .  A
C805        H812   1.084       .  S
C806        C807   1.400       .  A
C807        C808   1.387   1_545  A
C807       Br814   1.928   1_545  S
C808        C809   1.409   1_565  A
C808        H813   1.071       .  S
C809        C810   1.425       .  A
C810       Br811   1.921       .  S
C815        C816   1.424       .  A
C815        C820   1.383       .  A
C815        H822   1.062   1_455  S
C816        C817   1.423       .  A
C817        C818   1.418       .  A
C817       Br824   1.918       .  S
C818        C819   1.416       .  A
C818        H823   1.082       .  S
C819        C820   1.390       .  A
C820       Br821   1.931       .  S
C825        C826   1.405       .  A
C825        C830   1.390       .  A
C825        H832   1.085       .  S
C826        C827   1.433       .  A
C827        C828   1.401       .  A
C827       Br834   1.931       .  S
C828        C829   1.400       .  A
C828        H833   1.085       .  S
C829        C830   1.413       .  A
C830       Br831   1.919       .  S
C835        C836   1.395       .  A
C835        C840   1.388       .  A
C835        H842   1.067       .  S
C836        C837   1.402       .  A
C837        C838   1.405       .  A
C837       Br844   1.899       .  S
C838        C839   1.414       .  A
C838        H843   1.083       .  S
C839        C840   1.400       .  A
C840       Br841   1.922       .  S
C845        C846   1.415       .  A
C845        C850   1.409       .  A
C845        H852   1.082       .  S
C846        C847   1.392       .  A
C847        C848   1.378       .  A
C847       Br854   1.909       .  S
C848        C849   1.401       .  A
C848        H853   1.073       .  S
C849        C850   1.416       .  A
C850       Br851   1.917       .  S
C855        C856   1.405       .  A
C855        C860   1.408       .  A
C855        H862   1.083       .  S
C856        C857   1.410       .  A
C857        C858   1.406       .  A
C857       Br864   1.921       .  S
C858        C859   1.419       .  A
C858        H863   1.083       .  S
C859        C860   1.418       .  A
C860       Br861   1.923       .  S
C865        C866   1.387       .  A
C865        C870   1.369       .  A
C865        H872   1.081       .  S
C866        C867   1.415       .  A
C867        C868   1.414       .  A
C867       Br874   1.909       .  S
C868        C869   1.414       .  A
C868        H873   1.079       .  S
C869        C870   1.413       .  A
C870       Br871   1.911       .  S
C875        C876   1.402       .  A
C875        C880   1.409       .  A
C875        H882   1.083       .  S
C876        C877   1.385       .  A
C877        C878   1.383       .  A
C877       Br884   1.913   1_545  S
C878        C879   1.416       .  A
C878        H883   1.079       .  S
C879        C880   1.429       .  A
C880       Br881   1.911       .  S
C885        C886   1.416       .  A
C885        C890   1.387       .  A
C885        H892   1.071   1_455  S
C886        C887   1.416       .  A
C887        C888   1.401       .  A
C887       Br894   1.920       .  S
C888        C889   1.402       .  A
C888        H893   1.069       .  S
C889        C890   1.393       .  A
C890       Br891   1.927       .  S
C895        C896   1.401       .  A
C895        C900   1.376       .  A
C895        H902   1.083       .  S
C896        C897   1.440       .  A
C897        C898   1.440       .  A
C897       Br904   1.915       .  S
C898        C899   1.425       .  A
C898        H903   1.080       .  S
C899        C900   1.381       .  A
C900       Br901   1.918       .  S
C905        C906   1.407       .  A
C905        C910   1.410       .  A
C905        H912   1.082       .  S
C906        C907   1.405       .  A
C907        C908   1.394       .  A
C907       Br914   1.901       .  S
C908        C909   1.407       .  A
C908        H913   1.083       .  S
C909        C910   1.426       .  A
C910       Br911   1.917       .  S
C915        C916   1.411       .  A
C915        C920   1.392       .  A
C915        H922   1.067       .  S
C916        C917   1.411       .  A
C917        C918   1.407       .  A
C917       Br924   1.917       .  S
C918        C919   1.413       .  A
C918        H923   1.074       .  S
C919        C920   1.401       .  A
C920       Br921   1.917       .  S
C925        C926   1.411       .  A
C925        C930   1.386       .  A
C925        H932   1.084       .  S
C926        C927   1.417       .  A
C927        C928   1.405       .  A
C927       Br934   1.912   1_545  S
C928        C929   1.408       .  A
C928        H933   1.083       .  S
C929        C930   1.401       .  A
C930       Br931   1.918       .  S
C935        C936   1.414       .  A
C935        C940   1.378       .  A
C935        H942   1.073       .  S
C936        C937   1.420       .  A
C937        C938   1.410       .  A
C937       Br944   1.930       .  S
C938        C939   1.418       .  A
C938        H943   1.079       .  S
C939        C940   1.392       .  A
C940       Br941   1.918       .  S
C945        C946   1.417       .  A
C945        C950   1.416       .  A
C945        H952   1.054       .  S
C946        C947   1.390       .  A
C947        C948   1.390       .  A
C947       Br954   1.910       .  S
C948        C949   1.418       .  A
C948        H953   1.081       .  S
C949        C950   1.415       .  A
C950       Br951   1.918       .  S
C955        C956   1.410       .  A
C955        C960   1.394       .  A
C955        H962   1.047       .  S
C956        C957   1.406       .  A
C957        C958   1.415       .  A
C957       Br964   1.911   1_545  S
C958        C959   1.414       .  A
C958        H963   1.081       .  S
C959        C960   1.405       .  A
C960       Br961   1.914       .  S
C965        C966   1.417       .  A
C965        C970   1.382       .  A
C965        H972   1.070       .  S
C966        C967   1.429       .  A
C967        C968   1.410       .  A
C967       Br974   1.915       .  S
C968        C969   1.398       .  A
C968        H973   1.083       .  S
C969        C970   1.400       .  A
C970       Br971   1.928       .  S
C975        C976   1.407       .  A
C975        C980   1.400       .  A
C975        H982   1.083       .  S
C976        C977   1.408       .  A
C977        C978   1.412       .  A
C977       Br984   1.917       .  S
C978        C979   1.421       .  A
C978        H983   1.059       .  S
C979        C980   1.409       .  A
C980       Br981   1.912       .  S
C985        C986   1.409       .  A
C985        C990   1.393       .  A
C985        H992   1.061       .  S
C986        C987   1.415       .  A
C987        C988   1.397       .  A
C987       Br994   1.919       .  S
C988        C989   1.402       .  A
C988        H993   1.080       .  S
C989        C990   1.402       .  A
C990       Br991   1.907       .  S
C995        C996   1.409       .  A
C995       C1000   1.399       .  A
C995       H1002   1.069       .  S
C996        C997   1.411       .  A
C997        C998   1.407       .  A
C997      Br1004   1.918       .  S
C998        C999   1.418       .  A
C998       H1003   1.084       .  S
C999       C1000   1.401       .  A
C1000     Br1001   1.913       .  S
C1005      C1006   1.414       .  A
C1005      C1010   1.405       .  A
C1005      H1012   1.065       .  S
C1006      C1007   1.398       .  A
C1007      C1008   1.384       .  A
C1007     Br1014   1.916       .  S
C1008      C1009   1.413       .  A
C1008      H1013   1.074       .  S
C1009      C1010   1.411       .  A
C1010     Br1011   1.930       .  S
C1015      C1016   1.413       .  A
C1015      C1020   1.396       .  A
C1015      H1022   1.083       .  S
C1016      C1017   1.415       .  A
C1017      C1018   1.403       .  A
C1017     Br1024   1.914   1_545  S
C1018      C1019   1.407       .  A
C1018      H1023   1.083       .  S
C1019      C1020   1.411       .  A
C1020     Br1021   1.922       .  S
C1025      C1026   1.403       .  A
C1025      C1030   1.403       .  A
C1025      H1032   1.084       .  S
C1026      C1027   1.408       .  A
C1027      C1028   1.407       .  A
C1027     Br1034   1.917       .  S
C1028      C1029   1.415       .  A
C1028      H1033   1.066       .  S
C1029      C1030   1.412       .  A
C1030     Br1031   1.918   1_545  S
C1035      C1036   1.415       .  A
C1035      C1040   1.414       .  A
C1035      H1042   1.062       .  S
C1036      C1037   1.392       .  A
C1037      C1038   1.400       .  A
C1037     Br1044   1.909   1_565  S
C1038      C1039   1.421       .  A
C1038      H1043   1.081       .  S
C1039      C1040   1.417       .  A
C1040     Br1041   1.913       .  S
C1045      C1046   1.415       .  A
C1045      C1050   1.375       .  A
C1045      H1052   1.075   1_455  S
C1046      C1047   1.426       .  A
C1047      C1048   1.416       .  A
C1047     Br1054   1.919       .  S
C1048      C1049   1.416       .  A
C1048      H1053   1.081       .  S
C1049      C1050   1.395       .  A
C1050     Br1051   1.922       .  S
C1055      C1056   1.395       .  A
C1055      C1060   1.395       .  A
C1055      H1062   1.068       .  S
C1056      C1057   1.414       .  A
C1057      C1058   1.409       .  A
C1057     Br1064   1.911       .  S
C1058      C1059   1.414       .  A
C1058      H1063   1.084       .  S
C1059      C1060   1.421       .  A
C1060     Br1061   1.915       .  S
C1065      C1066   1.416       .  A
C1065      C1070   1.420       .  A
C1065      H1072   1.080       .  S
C1066      C1067   1.395       .  A
C1067      C1068   1.370       .  A
C1067     Br1074   1.914       .  S
C1068      C1069   1.405       .  A
C1068      H1073   1.081       .  S
C1069      C1070   1.427       .  A
C1070     Br1071   1.918       .  S
C1075      C1076   1.409       .  A
C1075      C1080   1.412       .  A
C1075      H1082   1.082       .  S
C1076      C1077   1.418       .  A
C1077      C1078   1.405       .  A
C1077     Br1084   1.916   1_455  S
C1078      C1079   1.403       .  A
C1078      H1083   1.083       .  S
C1079      C1080   1.420       .  A
C1080     Br1081   1.920       .  S
C1085      C1086   1.410       .  A
C1085      C1090   1.379       .  A
C1085      H1092   1.073   1_554  S
C1086      C1087   1.422       .  A
C1087      C1088   1.420       .  A
C1087     Br1094   1.918       .  S
C1088      C1089   1.422       .  A
C1088      H1093   1.080       .  S
C1089      C1090   1.395       .  A
C1090     Br1091   1.917       .  S
C1095      C1096   1.412       .  A
C1095      C1100   1.421       .  A
C1095      H1102   1.083       .  S
C1096      C1097   1.413       .  A
C1097      C1098   1.386       .  A
C1097     Br1104   1.899       .  S
C1098      C1099   1.395       .  A
C1098      H1103   1.056       .  S
C1099      C1100   1.426       .  A
C1100     Br1101   1.915       .  S
C1105      C1106   1.410       .  A
C1105      C1110   1.406       .  A
C1105      H1112   1.079       .  S
C1106      C1107   1.418       .  A
C1107      C1108   1.394       .  A
C1107     Br1114   1.917       .  S
C1108      C1109   1.400       .  A
C1108      H1113   1.084       .  S
C1109      C1110   1.413       .  A
C1110     Br1111   1.910       .  S
C1115      C1116   1.406       .  A
C1115      C1120   1.408       .  A
C1115      H1122   1.076       .  S
C1116      C1117   1.412       .  A
C1117      C1118   1.395       .  A
C1117     Br1124   1.924       .  S
C1118      C1119   1.413       .  A
C1118      H1123   1.084       .  S
C1119      C1120   1.416       .  A
C1120     Br1121   1.917       .  S
C1125      C1126   1.403       .  A
C1125      C1130   1.406       .  A
C1125      H1132   1.078       .  S
C1126      C1127   1.402       .  A
C1127      C1128   1.396       .  A
C1127     Br1134   1.923       .  S
C1128      C1129   1.416       .  A
C1128      H1133   1.066       .  S
C1129      C1130   1.423       .  A
C1130     Br1131   1.901       .  S
C1135      C1136   1.402       .  A
C1135      C1140   1.403       .  A
C1135      H1142   1.083       .  S
C1136      C1137   1.403       .  A
C1137      C1138   1.399       .  A
C1137     Br1144   1.924       .  S
C1138      C1139   1.413       .  A
C1138      H1143   1.062       .  S
C1139      C1140   1.414       .  A
C1140     Br1141   1.902       .  S
C1145      C1146   1.410       .  A
C1145      C1150   1.426       .  A
C1145      H1152   1.083       .  S
C1146      C1147   1.395       .  A
C1147      C1148   1.380       .  A
C1147     Br1154   1.925   1_554  S
C1148      C1149   1.406       .  A
C1148      H1153   1.076       .  S
C1149      C1150   1.433       .  A
C1150     Br1151   1.922       .  S
C1155      C1156   1.420       .  A
C1155      C1160   1.407       .  A
C1155      H1162   1.081       .  S
C1156      C1157   1.417       .  A
C1157      C1158   1.400       .  A
C1157     Br1164   1.920       .  S
C1158      C1159   1.402       .  A
C1158      H1163   1.080       .  S
C1159      C1160   1.404       .  A
C1160     Br1161   1.918       .  S
C1165      C1166   1.406       .  A
C1165      C1170   1.402       .  A
C1165      H1172   1.080       .  S
C1166      C1167   1.399       .  A
C1167      C1168   1.391       .  A
C1167     Br1174   1.897       .  S
C1168      C1169   1.403       .  A
C1168      H1173   1.083       .  S
C1169      C1170   1.411       .  A
C1170     Br1171   1.915       .  S
C1175      C1176   1.417       .  A
C1175      C1180   1.385       .  A
C1175      H1182   1.076       .  S
C1176      C1177   1.417       .  A
C1177      C1178   1.400       .  A
C1177     Br1184   1.915       .  S
C1178      C1179   1.401       .  A
C1178      H1183   1.082       .  S
C1179      C1180   1.402       .  A
C1180     Br1181   1.918       .  S
C1185      C1186   1.412       .  A
C1185      C1190   1.416       .  A
C1185      H1192   1.078       .  S
C1186      C1187   1.398       .  A
C1187      C1188   1.381       .  A
C1187     Br1194   1.924       .  S
C1188      C1189   1.423       .  A
C1188      H1193   1.075       .  S
C1189      C1190   1.422       .  A
C1190     Br1191   1.918       .  S
C1195      C1196   1.404       .  A
C1195      C1200   1.401       .  A
C1195      H1202   1.070       .  S
C1196      C1197   1.405       .  A
C1197      C1198   1.403       .  A
C1197     Br1204   1.905       .  S
C1198      C1199   1.405       .  A
C1198      H1203   1.083       .  S
C1199      C1200   1.415       .  A
C1200     Br1201   1.920       .  S
C1205      C1206   1.410       .  A
C1205      C1210   1.399       .  A
C1205      H1212   1.084       .  S
C1206      C1207   1.431       .  A
C1207      C1208   1.396       .  A
C1207     Br1214   1.905       .  S
C1208      C1209   1.392       .  A
C1208      H1213   1.085       .  S
C1209      C1210   1.406       .  A
C1210     Br1211   1.906       .  S
C1215      C1216   1.403       .  A
C1215      C1220   1.369       .  A
C1215      H1222   1.075       .  S
C1216      C1217   1.420       .  A
C1217      C1218   1.419       .  A
C1217     Br1224   1.916       .  S
C1218      C1219   1.425       .  A
C1218      H1223   1.076       .  S
C1219      C1220   1.395       .  A
C1220     Br1221   1.914       .  S
C1225      C1226   1.402       .  A
C1225      C1230   1.396       .  A
C1225      H1232   1.083       .  S
C1226      C1227   1.407       .  A
C1227      C1228   1.389       .  A
C1227     Br1234   1.916       .  S
C1228      C1229   1.400       .  A
C1228      H1233   1.063       .  S
C1229      C1230   1.405       .  A
C1230     Br1231   1.900       .  S
C1235      C1236   1.406       .  A
C1235      C1240   1.400       .  A
C1235      H1242   1.074       .  S
C1236      C1237   1.403       .  A
C1237      C1238   1.380       .  A
C1237     Br1244   1.933       .  S
C1238      C1239   1.408       .  A
C1238      H1243   1.078       .  S
C1239      C1240   1.404       .  A
C1240     Br1241   1.902       .  S
C1245      C1246   1.391       .  A
C1245      C1250   1.392       .  A
C1245      H1252   1.084       .  S
C1246      C1247   1.405       .  A
C1247      C1248   1.409       .  A
C1247     Br1254   1.924       .  S
C1248      C1249   1.421       .  A
C1248      H1253   1.066       .  S
C1249      C1250   1.416       .  A
C1250     Br1251   1.885       .  S
C1255      C1256   1.395       .  A
C1255      C1260   1.389       .  A
C1255      H1262   1.084       .  S
C1256      C1257   1.409       .  A
C1257      C1258   1.412       .  A
C1257     Br1264   1.910       .  S
C1258      C1259   1.419       .  A
C1258      H1263   1.068       .  S
C1259      C1260   1.422       .  A
C1260     Br1261   1.917       .  S
C1265      C1266   1.417       .  A
C1265      C1270   1.416       .  A
C1265      H1272   1.083       .  S
C1266      C1267   1.404       .  A
C1267      C1268   1.402       .  A
C1267     Br1274   1.921       .  S
C1268      C1269   1.411       .  A
C1268      H1273   1.058       .  S
C1269      C1270   1.417       .  A
C1270     Br1271   1.917       .  S
C1275      C1276   1.433       .  A
C1275      C1280   1.436       .  A
C1275      H1282   1.071       .  S
C1276      C1277   1.384       .  A
C1277      C1278   1.382       .  A
C1277     Br1284   1.921       .  S
C1278      C1279   1.406       .  A
C1278      H1283   1.083       .  S
C1279      C1280   1.426       .  A
C1280     Br1281   1.915       .  S
C1285      C1286   1.406       .  A
C1285      C1290   1.407       .  A
C1285      H1292   1.084       .  S
C1286      C1287   1.416       .  A
C1287      C1288   1.399       .  A
C1287     Br1294   1.909       .  S
C1288      C1289   1.394       .  A
C1288      H1293   1.075       .  S
C1289      C1290   1.428       .  A
C1290     Br1291   1.917       .  S
C1295      C1296   1.402       .  A
C1295      C1300   1.380       .  A
C1295      H1302   1.077       .  S
C1296      C1297   1.433       .  A
C1297      C1298   1.416       .  A
C1297     Br1304   1.903       .  S
C1298      C1299   1.405       .  A
C1298      H1303   1.082       .  S
C1299      C1300   1.396       .  A
C1300     Br1301   1.899       .  S
C1305      C1306   1.396       .  A
C1305      C1310   1.400       .  A
C1305      H1312   1.082       .  S
C1306      C1307   1.406       .  A
C1307      C1308   1.390       .  A
C1307     Br1314   1.927       .  S
C1308      C1309   1.404       .  A
C1308      H1313   1.039       .  S
C1309      C1310   1.418       .  A
C1310     Br1311   1.890       .  S
C1315      C1316   1.409       .  A
C1315      C1320   1.402       .  A
C1315      H1322   1.071       .  S
C1316      C1317   1.411       .  A
C1317      C1318   1.395       .  A
C1317     Br1324   1.925       .  S
C1318      C1319   1.412       .  A
C1318      H1323   1.081       .  S
C1319      C1320   1.402       .  A
C1320     Br1321   1.909       .  S
C1325      C1326   1.425       .  A
C1325      C1330   1.410       .  A
C1325      H1332   1.074       .  S
C1326      C1327   1.410       .  A
C1327      C1328   1.388       .  A
C1327     Br1334   1.893       .  S
C1328      C1329   1.392       .  A
C1328      H1333   1.069       .  S
C1329      C1330   1.406       .  A
C1330     Br1331   1.917       .  S
C1335      C1336   1.402       .  A
C1335      C1340   1.411       .  A
C1335      H1342   1.083       .  S
C1336      C1337   1.396       .  A
C1337      C1338   1.382       .  A
C1337     Br1344   1.928       .  S
C1338      C1339   1.421       .  A
C1338      H1343   1.062       .  S
C1339      C1340   1.419       .  A
C1340     Br1341   1.903       .  S
C1345      C1346   1.410       .  A
C1345      C1350   1.396       .  A
C1345      H1352   1.079       .  S
C1346      C1347   1.408       .  A
C1347      C1348   1.402       .  A
C1347     Br1354   1.917       .  S
C1348      C1349   1.412       .  A
C1348      H1353   1.082       .  S
C1349      C1350   1.404       .  A
C1350     Br1351   1.922       .  S
C1355      C1356   1.410       .  A
C1355      C1360   1.392       .  A
C1355      H1362   1.073       .  S
C1356      C1357   1.424       .  A
C1357      C1358   1.405       .  A
C1357     Br1364   1.919       .  S
C1358      C1359   1.408       .  A
C1358      H1363   1.080       .  S
C1359      C1360   1.400       .  A
C1360     Br1361   1.931       .  S
C1365      C1366   1.408       .  A
C1365      C1370   1.381       .  A
C1365      H1372   1.078       .  S
C1366      C1367   1.420       .  A
C1367      C1368   1.404       .  A
C1367     Br1374   1.919       .  S
C1368      C1369   1.405       .  A
C1368      H1373   1.084       .  S
C1369      C1370   1.402       .  A
C1370     Br1371   1.918       .  S
C1375      C1376   1.398       .  A
C1375      C1380   1.406       .  A
C1375      H1382   1.084       .  S
C1376      C1377   1.397       .  A
C1377      C1378   1.383       .  A
C1377     Br1384   1.932       .  S
C1378      C1379   1.413       .  A
C1378      H1383   1.070       .  S
C1379      C1380   1.428       .  A
C1380     Br1381   1.896       .  S
C1385      C1386   1.401       .  A
C1385      C1390   1.404       .  A
C1385      H1392   1.079       .  S
C1386      C1387   1.411       .  A
C1387      C1388   1.379       .  A
C1387     Br1394   1.926       .  S
C1388      C1389   1.406       .  A
C1388      H1393   1.075       .  S
C1389      C1390   1.423       .  A
C1390     Br1391   1.919       .  S
C1395      C1396   1.396       .  A
C1395      C1400   1.379       .  A
C1395      H1402   1.071       .  S
C1396      C1397   1.417       .  A
C1397      C1398   1.404       .  A
C1397     Br1404   1.914       .  S
C1398      C1399   1.400       .  A
C1398      H1403   1.083       .  S
C1399      C1400   1.400       .  A
C1400     Br1401   1.897       .  S
C1405      C1406   1.419       .  A
C1405      C1410   1.414       .  A
C1405      H1412   1.078       .  S
C1406      C1407   1.397       .  A
C1407      C1408   1.383       .  A
C1407     Br1414   1.927       .  S
C1408      C1409   1.404       .  A
C1408      H1413   1.067       .  S
C1409      C1410   1.413       .  A
C1410     Br1411   1.916       .  S
C1415      C1416   1.410   1_565  A
C1415      C1420   1.378   1_565  A
C1415      H1422   1.076       .  S
C1416      C1417   1.430       .  A
C1417      C1418   1.419       .  A
C1417     Br1424   1.916       .  S
C1418      C1419   1.411       .  A
C1418      H1423   1.082       .  S
C1419      C1420   1.395       .  A
C1420     Br1421   1.920   1_545  S
C1425      C1426   1.403       .  A
C1425      C1430   1.389       .  A
C1425      H1432   1.075       .  S
C1426      C1427   1.423       .  A
C1427      C1428   1.415       .  A
C1427     Br1434   1.918       .  S
C1428      C1429   1.416       .  A
C1428      H1433   1.083       .  S
C1429      C1430   1.404       .  A
C1430     Br1431   1.907       .  S
C1435      C1436   1.416       .  A
C1435      C1440   1.402       .  A
C1435      H1442   1.056       .  S
C1436      C1437   1.408       .  A
C1437      C1438   1.407       .  A
C1437     Br1444   1.913       .  S
C1438      C1439   1.414       .  A
C1438      H1443   1.073       .  S
C1439      C1440   1.406       .  A
C1440     Br1441   1.920       .  S
C1445      C1446   1.395       .  A
C1445      C1450   1.402       .  A
C1445      H1452   1.083       .  S
C1446      C1447   1.403       .  A
C1447      C1448   1.394       .  A
C1447     Br1454   1.909       .  S
C1448      C1449   1.403       .  A
C1448      H1453   1.067       .  S
C1449      C1450   1.420       .  A
C1450     Br1451   1.881       .  S
C1455      C1456   1.408       .  A
C1455      C1460   1.391       .  A
C1455      H1462   1.068       .  S
C1456      C1457   1.404       .  A
C1457      C1458   1.392       .  A
C1457     Br1464   1.914       .  S
C1458      C1459   1.403       .  A
C1458      H1463   1.079       .  S
C1459      C1460   1.411       .  A
C1460     Br1461   1.925       .  S
C1465      C1466   1.410       .  A
C1465      C1470   1.422       .  A
C1465      H1472   1.082       .  S
C1466      C1467   1.399       .  A
C1467      C1468   1.382       .  A
C1467     Br1474   1.922   1_455  S
C1468      C1469   1.410       .  A
C1468      H1473   1.073       .  S
C1469      C1470   1.423       .  A
C1470     Br1471   1.914       .  S
C1475      C1476   1.407       .  A
C1475      C1480   1.399       .  A
C1475      H1482   1.082       .  S
C1476      C1477   1.400       .  A
C1477      C1478   1.399       .  A
C1477     Br1484   1.917       .  S
C1478      C1479   1.422       .  A
C1478      H1483   1.061       .  S
C1479      C1480   1.407       .  A
C1480     Br1481   1.911       .  S
C1485      C1486   1.411       .  A
C1485      C1490   1.417       .  A
C1485      H1492   1.081       .  S
C1486      C1487   1.398       .  A
C1487      C1488   1.387       .  A
C1487     Br1494   1.920       .  S
C1488      C1489   1.409       .  A
C1488      H1493   1.080   1_556  S
C1489      C1490   1.431       .  A
C1490     Br1491   1.913       .  S
C1495      C1496   1.415       .  A
C1495      C1500   1.416       .  A
C1495      H1502   1.083       .  S
C1496      C1497   1.392       .  A
C1497      C1498   1.390       .  A
C1497     Br1504   1.929       .  S
C1498      C1499   1.411       .  A
C1498      H1503   1.070       .  S
C1499      C1500   1.422       .  A
C1500     Br1501   1.921       .  S
C1505      C1506   1.413       .  A
C1505      C1510   1.405       .  A
C1505      H1512   1.064       .  S
C1506      C1507   1.413       .  A
C1507      C1508   1.399       .  A
C1507     Br1514   1.919   1_554  S
C1508      C1509   1.405       .  A
C1508      H1513   1.080       .  S
C1509      C1510   1.403       .  A
C1510     Br1511   1.919       .  S
C1515      C1516   1.399       .  A
C1515      C1520   1.396       .  A
C1515      H1522   1.083       .  S
C1516      C1517   1.404       .  A
C1517      C1518   1.407       .  A
C1517     Br1524   1.913       .  S
C1518      C1519   1.422       .  A
C1518      H1523   1.083       .  S
C1519      C1520   1.423       .  A
C1520     Br1521   1.916       .  S
C1525      C1526   1.387       .  A
C1525      C1530   1.398       .  A
C1525      H1532   1.085       .  S
C1526      C1527   1.393       .  A
C1527      C1528   1.387       .  A
C1527     Br1534   1.917       .  S
C1528      C1529   1.420       .  A
C1528      H1533   1.072       .  S
C1529      C1530   1.438       .  A
C1530     Br1531   1.898       .  S
C1535      C1536   1.409       .  A
C1535      C1540   1.417       .  A
C1535      H1542   1.082       .  S
C1536      C1537   1.391       .  A
C1537      C1538   1.363       .  A
C1537     Br1544   1.928       .  S
C1538      C1539   1.418       .  A
C1538      H1543   1.068       .  S
C1539      C1540   1.428       .  A
C1540     Br1541   1.917       .  S
C1545      C1546   1.408       .  A
C1545      C1550   1.404       .  A
C1545      H1552   1.083       .  S
C1546      C1547   1.403       .  A
C1547      C1548   1.384       .  A
C1547     Br1554   1.910       .  S
C1548      C1549   1.402       .  A
C1548      H1553   1.078       .  S
C1549      C1550   1.413       .  A
C1550     Br1551   1.912       .  S
C1555      C1556   1.410       .  A
C1555      C1560   1.396       .  A
C1555      H1562   1.075       .  S
C1556      C1557   1.406       .  A
C1557      C1558   1.394       .  A
C1557     Br1564   1.914       .  S
C1558      C1559   1.402       .  A
C1558      H1563   1.083       .  S
C1559      C1560   1.406       .  A
C1560     Br1561   1.920       .  S
C1565      C1566   1.404       .  A
C1565      C1570   1.390       .  A
C1565      H1572   1.059       .  S
C1566      C1567   1.426       .  A
C1567      C1568   1.420       .  A
C1567     Br1574   1.917       .  S
C1568      C1569   1.412       .  A
C1568      H1573   1.083       .  S
C1569      C1570   1.407       .  A
C1570     Br1571   1.908       .  S
C1575      C1576   1.402       .  A
C1575      C1580   1.399       .  A
C1575      H1582   1.083       .  S
C1576      C1577   1.415       .  A
C1577      C1578   1.399       .  A
C1577     Br1584   1.907       .  S
C1578      C1579   1.400       .  A
C1578      H1583   1.082       .  S
C1579      C1580   1.417       .  A
C1580     Br1581   1.918       .  S
C1585      C1586   1.411       .  A
C1585      C1590   1.421       .  A
C1585      H1592   1.083       .  S
C1586      C1587   1.398       .  A
C1587      C1588   1.373       .  A
C1587     Br1594   1.930       .  S
C1588      C1589   1.410       .  A
C1588      H1593   1.073       .  S
C1589      C1590   1.434       .  A
C1590     Br1591   1.914       .  S
C1595      C1596   1.407       .  A
C1595      C1600   1.405       .  A
C1595      H1602   1.076       .  S
C1596      C1597   1.414       .  A
C1597      C1598   1.388       .  A
C1597     Br1604   1.927       .  S
C1598      C1599   1.409       .  A
C1598      H1603   1.081       .  S
C1599      C1600   1.411       .  A
C1600     Br1601   1.912       .  S
C1605      C1606   1.413       .  A
C1605      C1610   1.395       .  A
C1605      H1612   1.084       .  S
C1606      C1607   1.424       .  A
C1607      C1608   1.392       .  A
C1607     Br1614   1.918       .  S
C1608      C1609   1.398       .  A
C1608      H1613   1.084       .  S
C1609      C1610   1.399       .  A
C1610     Br1611   1.916       .  S
C1615      C1616   1.414       .  A
C1615      C1620   1.398       .  A
C1615      H1622   1.084       .  S
C1616      C1617   1.433       .  A
C1617      C1618   1.409       .  A
C1617     Br1624   1.911       .  S
C1618      C1619   1.401       .  A
C1618      H1623   1.084       .  S
C1619      C1620   1.402       .  A
C1620     Br1621   1.913       .  S
C1625      C1626   1.375       .  A
C1625      C1630   1.370       .  A
C1625      H1632   1.087       .  S
C1626      C1627   1.397       .  A
C1627      C1628   1.402       .  A
C1627     Br1634   1.915       .  S
C1628      C1629   1.423       .  A
C1628      H1633   1.067       .  S
C1629      C1630   1.442       .  A
C1630     Br1631   1.914       .  S
C1635      C1636   1.391       .  A
C1635      C1640   1.400       .  A
C1635      H1642   1.084       .  S
C1636      C1637   1.399       .  A
C1637      C1638   1.371       .  A
C1637     Br1644   1.921       .  S
C1638      C1639   1.415       .  A
C1638      H1643   1.067       .  S
C1639      C1640   1.435       .  A
C1640     Br1641   1.910       .  S
