geometry optimzed in LAMMPS
_audit_creation_date              2020-11-30 
_audit_creation_method            'lammps2cif' 
_symmetry_space_group_name_H-M    'P1' 
_symmetry_Int_Tables_number       1 
_symmetry_cell_setting            triclinic 
loop_ 
_symmetry_equiv_pos_as_xyz 
  x,y,z 
_cell_length_a                    45.68631843 
_cell_length_b                    44.56958652893579 
_cell_length_c                    45.481419607887815 
_cell_angle_alpha                 89.55562123713798 
_cell_angle_beta                  90.56294653145024 
_cell_angle_gamma                 90.93173814079485 
loop_ 
_atom_site_label 
_atom_site_type_symbol 
_atom_site_fract_x 
_atom_site_fract_y 
_atom_site_fract_z 
_atom_site_charge 
O1          O  0.52287935  0.96762579  0.48238691    -0.80400
O2          O  0.44639080  0.95638636  0.50090401    -0.80500
O3          O  0.51633053  0.98881579  0.56417218    -0.80500
O4          O  0.47172165  0.97782153  0.44599303    -0.80400
O5          O  0.48618680  0.95397985  0.54658759    -0.80500
O6          O  0.51347568  0.99361582  0.42756691    -0.80400
O7          O  0.42076731  0.98695612  0.47552168    -0.80400
O8          O  0.54927411  0.99366143  0.51431935    -0.80500
C9          C  0.54685045  0.97195553  0.49589384     1.09300
C10         C  0.42196573  0.96250185  0.48980534     1.09100
C11         C  0.50665256  0.96207356  0.56394614     1.09300
C12         C  0.48940888  0.97932258  0.42414474     1.09200
O13         O  0.48735635  0.04303553  0.44981667    -0.80400
O14         O  0.46231539  0.00737798  0.57008136    -0.80500
O15         O  0.52438977  0.05455217  0.50600395    -0.80400
O16         O  0.43998361  0.04513695  0.49389360    -0.80400
O17         O  0.42147036  0.01167767  0.52501023    -0.80500
O18         O  0.54233594  0.02800876  0.47141389    -0.80400
O19         O  0.44309355  0.02932136  0.43497782    -0.80400
O20         O  0.49047653  0.04573798  0.55623665    -0.80500
Co21       Co  0.50402971  0.00383429  0.46765680     1.51500
Co22       Co  0.45573760  0.98300301  0.53385709     1.51700
Co23       Co  0.51797269  0.02057608  0.53331332     1.51600
Co24       Co  0.45788988  0.01300221  0.47139101     1.51500
O25         O  0.48415850  0.00548463  0.50732361    -1.42400
C26         C  0.46636596  0.04467946  0.43070249     1.09200
C27         C  0.47304813  0.03343326  0.57461624     1.09300
C28         C  0.54526298  0.04994835  0.48892481     1.09200
C29         C  0.41914201  0.03618474  0.51007026     1.09200
O30         O  0.96168915  0.52619082  0.50272649    -0.80400
O31         O  0.96131006  0.46658858  0.48404248    -0.80500
O32         O  0.99859630  0.51230778  0.42618750    -0.80500
O33         O  0.99635017  0.47897227  0.56064534    -0.80400
O34         O  0.97815440  0.46622480  0.42517886    -0.80500
O35         O  0.97661601  0.52437561  0.56301283    -0.80400
O36         O  0.98474372  0.43812788  0.51572972    -0.80400
O37         O  0.98638294  0.55346629  0.47066454    -0.80500
C38         C  0.96378213  0.54947065  0.48652141     1.09300
C39         C  0.96220681  0.44292032  0.49968216     1.09100
C40         C  0.98340457  0.49155900  0.41273313     1.09300
C41         C  0.98114370  0.49850320  0.57459938     1.09200
O42         O  0.03333215  0.52192698  0.55206903    -0.80400
O43         O  0.03446208  0.47038005  0.43846414    -0.80500
O44         O  0.04614061  0.55090023  0.49214000    -0.80400
O45         O  0.04560718  0.44193966  0.49767814    -0.80400
O46         O  0.00964525  0.42917846  0.46808336    -0.80500
O47         O  0.01016541  0.56355020  0.52058969    -0.80400
O48         O  0.05740006  0.48120521  0.54358173    -0.80400
O49         O  0.05923539  0.51121914  0.44789219    -0.80500
Co50       Co  0.99736883  0.51974564  0.52650819     1.51500
Co51       Co  0.99776614  0.47279317  0.46200909     1.51700
Co52       Co  0.02263491  0.52943567  0.46208976     1.51600
Co53       Co  0.02124483  0.46258351  0.52653173     1.51500
O54         O  0.01600669  0.49629804  0.49457714    -1.42400
C55         C  0.05498750  0.50556271  0.55722571     1.09200
C56         C  0.05690990  0.48652934  0.43475096     1.09300
C57         C  0.03323971  0.57086023  0.50644621     1.09200
C58         C  0.03289281  0.42221879  0.48212961     1.09200
O59         O  0.45434329  0.51890804  0.01261875    -0.80400
O60         O  0.57574625  0.48365524  0.02876701    -0.80500
O61         O  0.51985896  0.45107350  0.04806033    -0.80500
O62         O  0.53410558  0.53779630  0.04053789    -0.80400
O63         O  0.54862292  0.43114917  0.01648970    -0.80500
O64         O  0.50047319  0.55862214  0.01183288    -0.80400
O65         O  0.59103116  0.52980084  0.01957999    -0.80400
O66         O  0.47187242  0.49018648  0.04818273    -0.80500
C67         C  0.45229734  0.50764169  0.03824471     1.09300
C68         C  0.59593610  0.50413635  0.03091750     1.09100
C69         C  0.53441860  0.42872405  0.04021758     1.09300
C70         C  0.51769974  0.55985864  0.03423267     1.09200
O71         O  0.51572872  0.53640434  0.95409029    -0.80400
O72         O  0.52970615  0.44976062  0.95969935    -0.80500
O73         O  0.45365771  0.46532483  0.99343471    -0.80400
O74         O  0.57347902  0.50384324  0.96869819    -0.80400
O75         O  0.58780626  0.45752198  0.97699198    -0.80500
O76         O  0.46852426  0.49477404  0.95707370    -0.80400
O77         O  0.54805380  0.55660705  0.98313738    -0.80400
O78         O  0.49963947  0.42779689  0.99134195    -0.80500
Co79       Co  0.48678516  0.52506316  0.98416261     1.51500
Co80       Co  0.55102121  0.46962745  0.99256673     1.51700
Co81       Co  0.48833509  0.46084307  0.01987522     1.51600
Co82       Co  0.55223525  0.51790098  0.00650028     1.51500
O83         O  0.51437937  0.49344400  0.00107645    -1.42400
C84         C  0.53096399  0.55918218  0.96115479     1.09200
C85         C  0.51417832  0.42714603  0.96739675     1.09300
C86         C  0.44999380  0.47617056  0.96781323     1.09200
C87         C  0.59236715  0.48295559  0.96492827     1.09200
C88         C  0.59004287  0.94357199  0.76679398     0.02800
C89         C  0.61518599  0.92558575  0.76639668    -0.13300
C90         C  0.62136173  0.90759674  0.74197228     0.00300
C91         C  0.60178319  0.90730464  0.71797143    -0.11800
C92         C  0.57695862  0.92554412  0.71722684     0.02800
C93         C  0.57141095  0.94371956  0.74183979    -0.11300
H94         H  0.63022144  0.92592247  0.78494324     0.08400
H95         H  0.60577278  0.89223886  0.69994815     0.06000
H96         H  0.55239289  0.95786301  0.74178470     0.05800
C97         C  0.78753680  0.76417166  0.73117678     0.79900
N98         N  0.76820859  0.78700722  0.73388108    -0.78400
C99         C  0.74989933  0.78802373  0.75726248     0.82400
N100        N  0.75095692  0.76584964  0.77777836    -0.78300
C101        C  0.76974964  0.74275567  0.77546875     0.82500
N102        N  0.78803613  0.74200486  0.75203404    -0.80000
C103        C  0.93388706  0.75904032  0.56568141     0.02800
C104        C  0.93857212  0.73089021  0.55195242    -0.13300
C105        C  0.92390372  0.70447362  0.56190339     0.00300
C106        C  0.90418274  0.70669071  0.58535085    -0.11800
C107        C  0.89933503  0.73398548  0.59945860     0.02800
C108        C  0.91380678  0.75994020  0.58908881    -0.11300
H109        H  0.95436855  0.72917715  0.53449655     0.08400
H110        H  0.89243187  0.68677260  0.59275289     0.06000
H111        H  0.90939542  0.78099413  0.59965686     0.05800
C112        C  0.79194032  0.55898799  0.91083449     0.02800
C113        C  0.76373001  0.54700307  0.91624225    -0.13300
C114        C  0.73894019  0.55825816  0.90136614     0.00300
C115        C  0.74306071  0.58161550  0.88061022    -0.11800
C116        C  0.77106149  0.59383279  0.87508797     0.02800
C117        C  0.79529834  0.58232166  0.89021145    -0.11300
H118        H  0.76108493  0.52957297  0.93275789     0.08400
H119        H  0.72450799  0.59025916  0.86840790     0.06000
H120        H  0.81691189  0.59159513  0.88585486     0.05800
C121        C  0.27213777  0.24746352  0.72294186     0.79900
N122        N  0.24967353  0.24489773  0.70350284    -0.78400
C123        C  0.22743348  0.26461743  0.70314150     0.82400
N124        N  0.22773145  0.28751851  0.72269208    -0.78300
C125        C  0.25017471  0.29052204  0.74244241     0.82500
N126        N  0.27219480  0.27026290  0.74253896    -0.80000
C127        C  0.28712079  0.42908805  0.91862184     0.02800
C128        C  0.28842355  0.41083551  0.89373206    -0.13300
C129        C  0.26332781  0.39634268  0.88269069     0.00300
C130        C  0.23654456  0.40009275  0.89674622    -0.11800
C131        C  0.23406404  0.41903148  0.92128330     0.02800
C132        C  0.25973279  0.43364051  0.93192749    -0.11300
H133        H  0.30929405  0.40690329  0.88345830     0.08400
H134        H  0.21796235  0.38694337  0.88902128     0.06000
H135        H  0.25867785  0.44851328  0.95054016     0.05800
C136        C  0.41307571  0.08271970  0.78840191     0.02800
C137        C  0.42467774  0.06949525  0.76301382    -0.13300
C138        C  0.41961145  0.08220816  0.73482815     0.00300
C139        C  0.40234698  0.10797699  0.73251258    -0.11800
C140        C  0.39013472  0.12110470  0.75746261     0.02800
C141        C  0.39565710  0.10827048  0.78519546    -0.11300
H142        H  0.43836886  0.04998457  0.76530845     0.08400
H143        H  0.39819756  0.11775827  0.71105173     0.06000
H144        H  0.38586380  0.11785838  0.80449595     0.05800
C145        C  0.05135773  0.21573640  0.58001079     0.02800
C146        C  0.04313546  0.23676714  0.55807374    -0.13300
C147        C  0.05530124  0.26615342  0.55787222     0.00300
C148        C  0.07544335  0.27422299  0.58016254    -0.11800
C149        C  0.08439170  0.25350311  0.60149906     0.02800
C150        C  0.07172322  0.22464595  0.60168901    -0.11300
H151        H  0.02817640  0.22996389  0.54066051     0.08400
H152        H  0.08487998  0.29663245  0.58057904     0.06000
H153        H  0.07793006  0.20896632  0.61887067     0.05800
O154        O  0.52060938  0.97728496  0.93679783    -0.80400
O155        O  0.51481715  0.00398370  0.06767105    -0.80500
O156        O  0.55052405  0.02072666  0.99335593    -0.80500
O157        O  0.54962177  0.96361125  0.01276551    -0.80400
O158        O  0.52748459  0.04739590  0.02556667    -0.80500
O159        O  0.52905312  0.93408859  0.98034803    -0.80400
O160        O  0.53110058  0.95701439  0.06972152    -0.80400
O161        O  0.53634907  0.02487396  0.93406988    -0.80500
C162        C  0.53573015  0.99823761  0.92380826     1.09300
C163        C  0.52877317  0.98282242  0.08127121     1.09100
C164        C  0.54947115  0.04392128  0.00911294     1.09300
C165        C  0.55032603  0.93985437  0.99788995     1.09200
O166        O  0.46671474  0.93426611  0.99358438    -0.80400
O167        O  0.46752736  0.04705544  0.00549329    -0.80500
O168        O  0.47947389  0.01882452  0.94406224    -0.80400
O169        O  0.47538508  0.96337419  0.05623835    -0.80400
O170        O  0.45332719  0.00543939  0.04820257    -0.80500
O171        O  0.45763193  0.97533726  0.94851831    -0.80400
O172        O  0.50077725  0.92318218  0.02556688    -0.80400
O173        O  0.50332177  0.06008981  0.97654594    -0.80500
Co174      Co  0.49302404  0.95786279  0.96765149     1.51500
Co175      Co  0.49056823  0.02333183  0.03379935     1.51700
Co176      Co  0.51473325  0.01630171  0.96940766     1.51600
Co177      Co  0.51228637  0.96681655  0.03336409     1.51500
O178        O  0.49519862  0.99104397  0.00055712    -1.42400
C179        C  0.47913288  0.91488567  0.00954041     1.09200
C180        C  0.48158208  0.06752931  0.99217251     1.09300
C181        C  0.45893551  0.00118122  0.93703951     1.09200
C182        C  0.45490604  0.98086561  0.06179118     1.09200
C183        C  0.28863287  0.73277362  0.75971739     0.79900
N184        N  0.28909153  0.75629908  0.74019942    -0.78400
C185        C  0.26654916  0.76032860  0.72059847     0.82400
N186        N  0.24360455  0.74043358  0.72080215    -0.78300
C187        C  0.24269346  0.71695487  0.74010915     0.82500
N188        N  0.26526668  0.71337255  0.75943991    -0.80000
C189        C  0.44879606  0.71116339  0.91542049     0.02800
C190        C  0.43166198  0.71302626  0.88948381    -0.13300
C191        C  0.41776392  0.73966019  0.88118048     0.00300
C192        C  0.42148241  0.76503709  0.89906563    -0.11800
C193        C  0.43795385  0.76396422  0.92551983     0.02800
C194        C  0.45199550  0.73685945  0.93324085    -0.11300
H195        H  0.42907665  0.69349910  0.87557403     0.08400
H196        H  0.41091707  0.78562180  0.89249204     0.06000
H197        H  0.46416664  0.73523270  0.95370832     0.05800
C198        C  0.21473888  0.92968363  0.57089166     0.02800
C199        C  0.21583841  0.90675213  0.59262522    -0.13300
C200        C  0.24104268  0.88906683  0.59675530     0.00300
C201        C  0.26547780  0.89474129  0.57876913    -0.11800
C202        C  0.26519295  0.91741378  0.55689195     0.02800
C203        C  0.23966485  0.93449037  0.55321086    -0.11300
H204        H  0.19728520  0.90292216  0.60686271     0.08400
H205        H  0.28446570  0.88069592  0.58126273     0.06000
H206        H  0.23927289  0.95170564  0.53637323     0.05800
C207        C  0.08264631  0.55253871  0.77401090     0.02800
C208        C  0.07888262  0.53910007  0.74610342    -0.13300
C209        C  0.09637615  0.54776851  0.72192737     0.00300
C210        C  0.11787883  0.57033933  0.72620652    -0.11800
C211        C  0.12167418  0.58467634  0.75352212     0.02800
C212        C  0.10399579  0.57550388  0.77728893    -0.11300
H213        H  0.06188750  0.52216819  0.74311996     0.08400
H214        H  0.13226464  0.57642181  0.70827780     0.06000
H215        H  0.10711633  0.58604048  0.79848849     0.05800
C216        C  0.74937263  0.25945775  0.24627103     0.79900
N217        N  0.72773400  0.23841519  0.24419812    -0.78400
C218        C  0.72651331  0.21436281  0.26256017     0.82400
N219        N  0.74760848  0.21131007  0.28363232    -0.78300
C220        C  0.76976104  0.23209496  0.28609027     0.82500
N221        N  0.77047693  0.25618186  0.26730120    -0.80000
C222        C  0.91494528  0.27747304  0.45392526     0.02800
C223        C  0.89290169  0.27466735  0.43238465    -0.13300
C224        C  0.89034474  0.24911827  0.41462503     0.00300
C225        C  0.90855600  0.22453269  0.42039247    -0.11800
C226        C  0.93044519  0.22578677  0.44261412     0.02800
C227        C  0.93375562  0.25292958  0.45867335    -0.11300
H228        H  0.87768318  0.29274484  0.42899128     0.08400
H229        H  0.90558271  0.20459163  0.40727527     0.06000
H230        H  0.95156714  0.25547310  0.47432919     0.05800
C231        C  0.79337513  0.41635482  0.08744377     0.02800
C232        C  0.76700328  0.43114457  0.07974328    -0.13300
C233        C  0.74145568  0.42737797  0.09670524     0.00300
C234        C  0.74299225  0.41022185  0.12277482    -0.11800
C235        C  0.76873593  0.39532568  0.13115039     0.02800
C236        C  0.79348693  0.39828877  0.11311239    -0.11300
H237        H  0.76582446  0.44496748  0.06016153     0.08400
H238        H  0.72370747  0.40808950  0.13633730     0.06000
H239        H  0.81242257  0.38503492  0.11846110     0.05800
C240        C  0.56785758  0.06086612  0.23326353     0.02800
C241        C  0.54685583  0.05570703  0.25513472    -0.13300
C242        C  0.55044085  0.06798310  0.28356148     0.00300
C243        C  0.57597615  0.08545809  0.28947741    -0.11800
C244        C  0.59646454  0.09178139  0.26733064     0.02800
C245        C  0.59238589  0.07898324  0.23955210    -0.11300
H246        H  0.52721591  0.04315685  0.24929291     0.08400
H247        H  0.57989851  0.09477665  0.31104570     0.06000
H248        H  0.60846961  0.08321926  0.22258679     0.05800
O249        O  0.95103012  0.48760470  0.96892630    -0.80400
O250        O  0.07031108  0.51423742  0.00607439    -0.80500
O251        O  0.01212058  0.53253692  0.03633735    -0.80500
O252        O  0.03068163  0.52015185  0.95172452    -0.80400
O253        O  0.04321358  0.50396200  0.05861531    -0.80500
O254        O  0.99804717  0.48815601  0.93251701    -0.80400
O255        O  0.08799678  0.50053379  0.96371372    -0.80400
O256        O  0.96574909  0.52667834  0.99509950    -0.80500
C257        C  0.94766917  0.51437467  0.97726998     1.09300
C258        C  0.09204728  0.51359359  0.98824267     1.09100
C259        C  0.02682099  0.52670286  0.05930787     1.09300
C260        C  0.01428871  0.51187922  0.93040584     1.09200
O261        O  0.01543211  0.43111349  0.95892470    -0.80400
O262        O  0.02738212  0.44396686  0.04248379    -0.80500
O263        O  0.94992256  0.47154509  0.02282586    -0.80400
O264        O  0.06884635  0.45026918  0.99279916    -0.80400
O265        O  0.08517711  0.46405206  0.03629533    -0.80500
O266        O  0.96740291  0.43363278  0.99758216    -0.80400
O267        O  0.04641034  0.46105079  0.93789651    -0.80400
O268        O  0.99566236  0.47473244  0.06189598    -0.80500
Co269      Co  0.98489351  0.46068037  0.96659813     1.51500
Co270      Co  0.04738313  0.47750822  0.02245539     1.51700
Co271      Co  0.98290301  0.50095954  0.02686281     1.51600
Co272      Co  0.04873817  0.48718234  0.97435390     1.51500
O273        O  0.01063009  0.48215156  0.99713787    -1.42400
C274        C  0.03029614  0.43768508  0.93645398     1.09200
C275        C  0.01230121  0.45192753  0.06420127     1.09300
C276        C  0.94903157  0.44419473  0.01555620     1.09200
C277        C  0.08956343  0.45057538  0.01219496     1.09200
C278        C  0.20918784  0.06481512  0.42819969     0.02800
C279        C  0.23356828  0.05743321  0.44600870    -0.13300
C280        C  0.26177158  0.07011673  0.44067331     0.00300
C281        C  0.26473849  0.09142090  0.41752957    -0.11800
C282        C  0.24047104  0.09979151  0.40018140     0.02800
C283        C  0.21343015  0.08534184  0.40491754    -0.11300
H284        H  0.23031237  0.04254286  0.46460143     0.08400
H285        H  0.28576572  0.10187329  0.41305930     0.06000
H286        H  0.19538158  0.09060706  0.39026508     0.05800
C287        C  0.26537985  0.22416025  0.27282219     0.79900
N288        N  0.24465876  0.24573210  0.27396992    -0.78400
C289        C  0.24428070  0.26883089  0.25421830     0.82400
N290        N  0.26510926  0.27020019  0.23304630    -0.78300
C291        C  0.28622483  0.24899697  0.23147166     0.82500
N292        N  0.28618234  0.22603618  0.25150573    -0.80000
C293        C  0.08805947  0.43073819  0.22200301     0.02800
C294        C  0.08257907  0.44340115  0.24981726    -0.13300
C295        C  0.10090248  0.43779709  0.27440855     0.00300
C296        C  0.12441572  0.41810163  0.27117109    -0.11800
C297        C  0.13004307  0.40442228  0.24403341     0.02800
C298        C  0.11230490  0.41164379  0.21954756    -0.11300
H299        H  0.06354985  0.45712122  0.25274321     0.08400
H300        H  0.13878011  0.41377698  0.28973763     0.06000
H301        H  0.11731507  0.40182073  0.19860256     0.05800
C302        C  0.44957440  0.22002713  0.07850827     0.02800
C303        C  0.46182636  0.24861812  0.07173934    -0.13300
C304        C  0.45388038  0.27441535  0.08787742     0.00300
C305        C  0.43307997  0.27064421  0.11061435    -0.11800
C306        C  0.41971352  0.24273937  0.11676968     0.02800
C307        C  0.42827831  0.21768236  0.10068844    -0.11300
H308        H  0.47781886  0.25045652  0.05441911     0.08400
H309        H  0.42763626  0.28927510  0.12450580     0.06000
H310        H  0.41829548  0.19598632  0.10549323     0.05800
C311        C  0.76781137  0.27299308  0.75745087     0.79900
N312        N  0.74556477  0.27328879  0.77689227    -0.78400
C313        C  0.72306942  0.25304099  0.77555837     0.82400
N314        N  0.72294943  0.23174569  0.75405124    -0.78300
C315        C  0.74513481  0.23108180  0.73403566     0.82500
N316        N  0.76739408  0.25185159  0.73603843    -0.80000
C317        C  0.94375261  0.41952120  0.72963499     0.02800
C318        C  0.95788253  0.42286750  0.75731243    -0.13300
C319        C  0.94709171  0.40755514  0.78247810     0.00300
C320        C  0.92278397  0.38784566  0.77900133    -0.11800
C321        C  0.90877069  0.38381412  0.75158619     0.02800
C322        C  0.91927182  0.40018131  0.72717646    -0.11300
H323        H  0.97675146  0.43775058  0.75928550     0.08400
H324        H  0.91514642  0.37492474  0.79775107     0.06000
H325        H  0.90867574  0.39755671  0.70589713     0.05800
C326        C  0.56309306  0.25979215  0.92898241     0.02800
C327        C  0.55793747  0.23235815  0.94433551    -0.13300
C328        C  0.57592397  0.20701639  0.94081359     0.00300
C329        C  0.59750939  0.20876471  0.91887337    -0.11800
C330        C  0.60085805  0.23426211  0.90078592     0.02800
C331        C  0.58445078  0.25996294  0.90671345    -0.11300
H332        H  0.53958222  0.23068548  0.95893440     0.08400
H333        H  0.61233895  0.19053033  0.91559632     0.06000
H334        H  0.58862790  0.27996711  0.89379287     0.05800
C335        C  0.70173867  0.07928506  0.56585962     0.02800
C336        C  0.72909670  0.06653045  0.55934349    -0.13300
C337        C  0.75418613  0.07146192  0.57710847     0.00300
C338        C  0.75204979  0.09088317  0.60120978    -0.11800
C339        C  0.72553135  0.10496543  0.60801312     0.02800
C340        C  0.70038538  0.09859951  0.59043354    -0.11300
H341        H  0.73119589  0.05294492  0.53992500     0.08400
H342        H  0.77099745  0.09443747  0.61533706     0.06000
H343        H  0.67983967  0.10875743  0.59594580     0.05800
C344        C  0.73911572  0.74504849  0.22810412     0.79900
N345        N  0.76367912  0.72818598  0.22790020    -0.78400
C346        C  0.78481009  0.73140265  0.24887310     0.82400
N347        N  0.78107236  0.75181940  0.27043597    -0.78300
C348        C  0.75672559  0.76901844  0.27132560     0.82500
N349        N  0.73572737  0.76557733  0.24995676    -0.80000
C350        C  0.70232439  0.92439420  0.43072773     0.02800
C351        C  0.72916753  0.94022655  0.43503447    -0.13300
C352        C  0.75399648  0.93432389  0.41795203     0.00300
C353        C  0.75150384  0.91296243  0.39557990    -0.11800
C354        C  0.72553471  0.89634800  0.39092862     0.02800
C355        C  0.70107561  0.90215861  0.40856694    -0.11300
H356        H  0.73096271  0.95727340  0.45171189     0.08400
H357        H  0.76997166  0.90935228  0.38136496     0.06000
H358        H  0.68147601  0.88858714  0.40544009     0.05800
C359        C  0.94356333  0.57489107  0.20714404     0.02800
C360        C  0.92402225  0.59901170  0.20690805    -0.13300
C361        C  0.90887924  0.60730210  0.23214865     0.00300
C362        C  0.91421625  0.59186859  0.25859647    -0.11800
C363        C  0.93303242  0.56694953  0.26001663     0.02800
C364        C  0.94795278  0.55887014  0.23387875    -0.11300
H365        H  0.92017605  0.61130708  0.18660332     0.08400
H366        H  0.90295525  0.59920935  0.27796287     0.06000
H367        H  0.96188465  0.53949253  0.23380154     0.05800
C368        C  0.59342588  0.77894355  0.05932641     0.02800
C369        C  0.57518157  0.75349224  0.05418359    -0.13300
C370        C  0.57831557  0.72609967  0.07016529     0.00300
C371        C  0.59947115  0.72589662  0.09330806    -0.11800
C372        C  0.61646564  0.75166966  0.10016231     0.02800
C373        C  0.61396558  0.77747398  0.08244833    -0.11300
H374        H  0.55799491  0.75576359  0.03803002     0.08400
H375        H  0.60284315  0.70608946  0.10663379     0.06000
H376        H  0.62828662  0.79649846  0.08693833     0.05800
C377        C  0.21244159  0.74866708  0.26981012     0.79900
N378        N  0.23276823  0.77091914  0.26611593    -0.78400
C379        C  0.25461467  0.76844174  0.24644088     0.82400
N380        N  0.25608398  0.74319862  0.23008835    -0.78300
C381        C  0.23605993  0.72051028  0.23317665     0.82500
N382        N  0.21416565  0.72331630  0.25324304    -0.80000
C383        C  0.40129827  0.93673725  0.27712923     0.02800
C384        C  0.37560450  0.91889601  0.27634918    -0.13300
C385        C  0.36245006  0.91070518  0.24960432     0.00300
C386        C  0.37476931  0.92079579  0.22316507    -0.11800
C387        C  0.40037347  0.93863600  0.22325028     0.02800
C388        C  0.41365952  0.94638116  0.25036786    -0.11300
H389        H  0.36644245  0.91011492  0.29660511     0.08400
H390        H  0.36496142  0.91380228  0.20248013     0.06000
H391        H  0.43333939  0.96027613  0.25059631     0.05800
C392        C  0.05569612  0.73076463  0.43179955     0.02800
C393        C  0.07549931  0.72629243  0.40872268    -0.13300
C394        C  0.08352311  0.74973287  0.38931463     0.00300
C395        C  0.07132678  0.77822871  0.39356313    -0.11800
C396        C  0.05182938  0.78343062  0.41669371     0.02800
C397        C  0.04385838  0.75947866  0.43548054    -0.11300
H398        H  0.08478557  0.70434418  0.40600567     0.08400
H399        H  0.07661710  0.79652906  0.37867597     0.06000
H400        H  0.02920508  0.76348344  0.45358573     0.05800
C401        C  0.29111307  0.55746767  0.08258447     0.02800
C402        C  0.29105606  0.57967485  0.10455006    -0.13300
C403        C  0.26468058  0.59267758  0.11356492     0.00300
C404        C  0.23823824  0.58320205  0.10027004    -0.11800
C405        C  0.23761621  0.56122915  0.07820126     0.02800
C406        C  0.26409207  0.54838276  0.06972759    -0.11300
H407        H  0.31155395  0.58733861  0.11422600     0.08400
H408        H  0.21803244  0.59378053  0.10645815     0.06000
H409        H  0.26349048  0.53087630  0.05334988     0.05800
O410        O  0.97481647  0.94966099  0.54503109    -0.80400
O411        O  0.99676612  0.03683928  0.54444450    -0.80500
O412        O  0.03360733  0.98193411  0.53263578    -0.80500
O413        O  0.91699224  0.02627821  0.50960099    -0.80400
O414        O  0.05457255  0.02607742  0.52614185    -0.80500
O415        O  0.92978532  0.99358289  0.54424562    -0.80400
O416        O  0.96557099  0.06088781  0.51509597    -0.80400
O417        O  0.00526655  0.93226681  0.51327448    -0.80500
C418        C  0.99001903  0.92811513  0.53607907     1.09300
C419        C  0.98094614  0.05945680  0.53881501     1.09100
C420        C  0.05612626  0.99932764  0.53619026     1.09300
C421        C  0.91358508  0.01484969  0.53502179     1.09200
O422        O  0.91454473  0.97421692  0.48699516    -0.80400
O423        O  0.03747987  0.00592558  0.47270280    -0.80500
O424        O  0.99209699  0.95830601  0.45787208    -0.80400
O425        O  0.98417225  0.04162724  0.45673872    -0.80400
O426        O  0.01438791  0.05926012  0.48937416    -0.80500
O427        O  0.95867129  0.93420284  0.48439435    -0.80400
O428        O  0.93440528  0.00409559  0.45347369    -0.80400
O429        O  0.04930766  0.95903799  0.48034729    -0.80500
Co430      Co  0.94668843  0.96508292  0.51513490     1.51500
Co431      Co  0.01534180  0.01870612  0.51014998     1.51700
Co432      Co  0.01181237  0.97253913  0.49367952     1.51600
Co433      Co  0.95206428  0.03111439  0.48390458     1.51500
O434        O  0.97608490  0.99731518  0.50137543    -1.42400
C435        C  0.91496521  0.98499974  0.46121611     1.09200
C436        C  0.05637626  0.98489194  0.47065209     1.09300
C437        C  0.97575613  0.93545252  0.46212900     1.09200
C438        C  0.99977437  0.06331517  0.46581274     1.09200
C439        C  0.98277476  0.90724113  0.44672562    -0.05500
C440        C  0.96252458  0.88323175  0.44526411    -0.05500
C441        C  0.97156118  0.85444720  0.43740135    -0.23600
C442        C  0.00122257  0.84893870  0.43189266     0.18600
C443        C  0.02158607  0.87310396  0.43259923     0.15800
C444        C  0.01214454  0.90207192  0.43928856    -0.18700
C445        C  0.05133395  0.86775639  0.42782205    -0.20500
C446        C  0.06087683  0.83868534  0.42247076    -0.13100
C447        C  0.04097188  0.81430594  0.42186111     0.03600
C448        C  0.01103243  0.81963673  0.42653870    -0.25200
H449        H  0.93994258  0.88647402  0.45135165     0.08700
H450        H  0.95559910  0.83624674  0.43693670     0.12300
H451        H  0.02819657  0.92013087  0.44083800     0.12200
H452        H  0.06726609  0.88597101  0.42863982     0.12000
H453        H  0.08405745  0.83513206  0.41930722     0.12500
H454        H  0.99550616  0.80104507  0.42608088     0.14500
C455        C  0.26459330  0.61748123  0.13550061    -0.05500
C456        C  0.28479248  0.64149179  0.13320680    -0.05500
C457        C  0.28343721  0.66604784  0.15211957    -0.23600
C458        C  0.26190507  0.66708348  0.17388537     0.18600
C459        C  0.24182533  0.64288482  0.17692429     0.15800
C460        C  0.24325942  0.61825583  0.15773150    -0.18700
C461        C  0.22040173  0.64397028  0.19883967    -0.20500
C462        C  0.21859869  0.66898260  0.21723893    -0.13100
C463        C  0.23819859  0.69343940  0.21419324     0.03600
C464        C  0.25998376  0.69208745  0.19242556    -0.25200
H465        H  0.30115740  0.64171827  0.11612672     0.08700
H466        H  0.29900294  0.68442150  0.14945538     0.12300
H467        H  0.22769121  0.59982566  0.15992414     0.12200
H468        H  0.20488572  0.62558582  0.20160298     0.12000
H469        H  0.20170721  0.66919908  0.23378199     0.12500
H470        H  0.27537547  0.71059830  0.18962555     0.14500
C471        C  0.18875602  0.75297350  0.29165138    -0.05500
C472        C  0.18564696  0.78136651  0.30460449    -0.05500
C473        C  0.16434720  0.78626906  0.32568875    -0.23600
C474        C  0.14547461  0.76293848  0.33445482     0.18600
C475        C  0.14785751  0.73437601  0.32149572     0.15800
C476        C  0.16950652  0.72949304  0.30014812    -0.18700
C477        C  0.12858962  0.71125913  0.33027307    -0.20500
C478        C  0.10739889  0.71636591  0.35169295    -0.13100
C479        C  0.10520438  0.74460388  0.36528567     0.03600
C480        C  0.12449767  0.76779259  0.35623842    -0.25200
H481        H  0.19979734  0.80007206  0.29851904     0.08700
H482        H  0.16273216  0.80837176  0.33523413     0.12300
H483        H  0.17152210  0.70749588  0.29046636     0.12200
H484        H  0.12984009  0.68922137  0.32053461     0.12000
H485        H  0.09260553  0.69808924  0.35740057     0.12500
H486        H  0.12383472  0.78954574  0.36660835     0.14500
C487        C  0.27655805  0.79305759  0.24288536    -0.05500
C488        C  0.30167086  0.78872173  0.22591360    -0.05500
C489        C  0.32268979  0.81155409  0.22282851    -0.23600
C490        C  0.31908190  0.83916787  0.23668522     0.18600
C491        C  0.29388527  0.84400344  0.25369691     0.15800
C492        C  0.27274824  0.82096342  0.25660921    -0.18700
C493        C  0.29063151  0.87157880  0.26793706    -0.20500
C494        C  0.31260182  0.89373743  0.26606320    -0.13100
C495        C  0.33779966  0.88885183  0.24942949     0.03600
C496        C  0.34064496  0.86173290  0.23438912    -0.25200
H497        H  0.30527339  0.76751868  0.21519620     0.08700
H498        H  0.34197930  0.80747817  0.20982200     0.12300
H499        H  0.25347501  0.82474034  0.26973977     0.12200
H500        H  0.27143124  0.87573952  0.28103561     0.12000
H501        H  0.31014007  0.91456906  0.27782559     0.12500
H502        H  0.36030041  0.85774905  0.22187665     0.14500
C503        C  0.78282479  0.94991378  0.42351152    -0.05500
C504        C  0.78420621  0.98017716  0.43212551    -0.05500
C505        C  0.81117228  0.99445838  0.43788350    -0.23600
C506        C  0.83742557  0.97888483  0.43504276     0.18600
C507        C  0.83647506  0.94867695  0.42583890     0.15800
C508        C  0.80931589  0.93442171  0.42028993    -0.18700
C509        C  0.86266433  0.93286661  0.42348835    -0.20500
C510        C  0.88933438  0.94630109  0.43178966    -0.13100
C511        C  0.89040440  0.97592362  0.44200803     0.03600
C512        C  0.86444939  0.99240661  0.44282499    -0.25200
H513        H  0.76442453  0.99295640  0.43427889     0.08700
H514        H  0.81145716  0.01765531  0.44491506     0.12300
H515        H  0.80885505  0.91091382  0.41430038     0.12200
H516        H  0.86236410  0.90961387  0.41663425     0.12000
H517        H  0.90889652  0.93289303  0.43219727     0.12500
H518        H  0.86497640  0.01483672  0.45196344     0.14500
C519        C  0.63597385  0.75278495  0.12672991    -0.05500
C520        C  0.63378749  0.77690619  0.14633128    -0.05500
C521        C  0.65256130  0.77953948  0.17068456    -0.23600
C522        C  0.67432475  0.75830250  0.17587785     0.18600
C523        C  0.67668289  0.73374954  0.15652787     0.15800
C524        C  0.65727898  0.73091343  0.13227807    -0.18700
C525        C  0.69880316  0.71283702  0.16147120    -0.20500
C526        C  0.71862680  0.71644721  0.18489143    -0.13100
C527        C  0.71674651  0.74092801  0.20421774     0.03600
C528        C  0.69410902  0.76157594  0.19971063    -0.25200
H529        H  0.61741928  0.79388727  0.14271144     0.08700
H530        H  0.65032185  0.79850127  0.18522966     0.12300
H531        H  0.65933843  0.71231075  0.11724916     0.12200
H532        H  0.70106960  0.69385242  0.14694779     0.12000
H533        H  0.73561959  0.70000663  0.18772447     0.12500
H534        H  0.69230728  0.78062144  0.21424824     0.14500
C535        C  0.81126997  0.71222807  0.24864981    -0.05500
C536        C  0.83288706  0.71480816  0.27083371    -0.05500
C537        C  0.85682994  0.69554414  0.27162424    -0.23600
C538        C  0.85972629  0.67325445  0.25027186     0.18600
C539        C  0.83865491  0.67104867  0.22738814     0.15800
C540        C  0.81472473  0.69050614  0.22667711    -0.18700
C541        C  0.84153012  0.64898857  0.20587221    -0.20500
C542        C  0.86468536  0.62890412  0.20725625    -0.13100
C543        C  0.88552877  0.63033448  0.23020507     0.03600
C544        C  0.88297518  0.65282625  0.25161264    -0.25200
H545        H  0.83109218  0.73142574  0.28791669     0.08700
H546        H  0.87287434  0.69780586  0.28923878     0.12300
H547        H  0.79848716  0.68827135  0.20923621     0.12200
H548        H  0.82557337  0.64694779  0.18815599     0.12000
H549        H  0.86586400  0.61162638  0.19073074     0.12500
H550        H  0.89899045  0.65431965  0.26934067     0.14500
C551        C  0.72495554  0.87241693  0.36803297    -0.05500
C552        C  0.70105253  0.86858190  0.34858530    -0.05500
C553        C  0.70197876  0.84738889  0.32586677    -0.23600
C554        C  0.72682013  0.82959684  0.32216694     0.18600
C555        C  0.75059120  0.83295909  0.34203268     0.15800
C556        C  0.74942912  0.85401665  0.36474097    -0.18700
C557        C  0.77544192  0.81543780  0.33878869    -0.20500
C558        C  0.77701937  0.79487976  0.31595251    -0.13100
C559        C  0.75379720  0.79118565  0.29561072     0.03600
C560        C  0.72852846  0.80869077  0.29899602    -0.25200
H561        H  0.68197793  0.88251629  0.35046722     0.08700
H562        H  0.68342358  0.84519705  0.31096997     0.12300
H563        H  0.76782109  0.85620705  0.37987250     0.12200
H564        H  0.79384941  0.81775574  0.35386641     0.12000
H565        H  0.79676512  0.78192534  0.31423358     0.12500
H566        H  0.71034889  0.80615843  0.28368929     0.14500
C567        C  0.88834928  0.02583734  0.55195005    -0.05500
C568        C  0.88930130  0.05511397  0.56320141    -0.05500
C569        C  0.86358262  0.06943034  0.57163915    -0.23600
C570        C  0.83617404  0.05497778  0.56839339     0.18600
C571        C  0.83497563  0.02532542  0.55759583     0.15800
C572        C  0.86102848  0.01090416  0.54960039    -0.18700
C573        C  0.80762471  0.01102010  0.55387308    -0.20500
C574        C  0.78174039  0.02594877  0.56040578    -0.13100
C575        C  0.78235103  0.05569283  0.57073549     0.03600
C576        C  0.80995870  0.06994382  0.57491739    -0.25200
H577        H  0.90990668  0.06744497  0.56420083     0.08700
H578        H  0.86504556  0.09221165  0.57967692     0.12300
H579        H  0.85988325  0.98884376  0.53976390     0.12200
H580        H  0.80620696  0.98829284  0.54567795     0.12000
H581        H  0.76111061  0.01397463  0.55752965     0.12500
H582        H  0.81107599  0.09290145  0.58250386     0.14500
C583        C  0.74561613  0.20807034  0.71007572    -0.05500
C584        C  0.76987760  0.20704488  0.69121400    -0.05500
C585        C  0.77082097  0.18652564  0.66813862    -0.23600
C586        C  0.74745798  0.16641002  0.66305868     0.18600
C587        C  0.72302823  0.16665999  0.68184228     0.15800
C588        C  0.72226309  0.18736776  0.70533508    -0.18700
C589        C  0.69968100  0.14641664  0.67647456    -0.20500
C590        C  0.70038320  0.12656624  0.65259524    -0.13100
C591        C  0.72451494  0.12624385  0.63355868     0.03600
C592        C  0.74809443  0.14632123  0.63925071    -0.25200
H593        H  0.78833894  0.22231933  0.69411679     0.08700
H594        H  0.78979856  0.18660538  0.65406172     0.12300
H595        H  0.70339999  0.18761156  0.71955004     0.12200
H596        H  0.68079059  0.14602790  0.69064975     0.12000
H597        H  0.68209442  0.11115125  0.64924723     0.12500
H598        H  0.76677498  0.14676525  0.62478559     0.14500
C599        C  0.69980429  0.25442331  0.79834656    -0.05500
C600        C  0.69843648  0.27994080  0.81642008    -0.05500
C601        C  0.67862769  0.28126981  0.83952401    -0.23600
C602        C  0.65961100  0.25709631  0.84532989     0.18600
C603        C  0.66019726  0.23147973  0.82715609     0.15800
C604        C  0.68010338  0.23037008  0.80360470    -0.18700
C605        C  0.64121077  0.20723989  0.83326298    -0.20500
C606        C  0.62215809  0.20825607  0.85716997    -0.13100
C607        C  0.62145518  0.23359775  0.87546430     0.03600
C608        C  0.64026637  0.25805233  0.86921052    -0.25200
H609        H  0.71301263  0.29900247  0.81296225     0.08700
H610        H  0.67847049  0.30114364  0.85311818     0.12300
H611        H  0.68081801  0.21052346  0.79001591     0.12200
H612        H  0.64118175  0.18739450  0.81963602     0.12000
H613        H  0.60765470  0.18924546  0.86120381     0.12500
H614        H  0.64025497  0.27760818  0.88325085     0.14500
C615        C  0.79244933  0.29524595  0.76037715    -0.05500
C616        C  0.79477143  0.31341652  0.78555886    -0.05500
C617        C  0.81781874  0.33421254  0.78890498    -0.23600
C618        C  0.83911553  0.33750950  0.76708516     0.18600
C619        C  0.83707180  0.31955676  0.74163861     0.15800
C620        C  0.81385691  0.29853788  0.73845038    -0.18700
C621        C  0.85835218  0.32290218  0.71980988    -0.20500
C622        C  0.88140161  0.34372881  0.72310100    -0.13100
C623        C  0.88377190  0.36184532  0.74827332     0.03600
C624        C  0.86237086  0.35846464  0.77026742    -0.25200
H625        H  0.77880758  0.31146280  0.80295884     0.08700
H626        H  0.81898085  0.34770397  0.80860113     0.12300
H627        H  0.81244164  0.28487180  0.71887137     0.12200
H628        H  0.85726677  0.30928114  0.70018013     0.12000
H629        H  0.89770887  0.34528996  0.70604181     0.12500
H630        H  0.86357202  0.37237863  0.78969340     0.14500
C631        C  0.30925948  0.25143634  0.20828377    -0.05500
C632        C  0.30865269  0.27524076  0.18772718    -0.05500
C633        C  0.33013599  0.27834206  0.16614112    -0.23600
C634        C  0.35284266  0.25768152  0.16436468     0.18600
C635        C  0.35377467  0.23346347  0.18458537     0.15800
C636        C  0.33207824  0.23051369  0.20644533    -0.18700
C637        C  0.37638588  0.21262590  0.18247250    -0.20500
C638        C  0.39766219  0.21563969  0.16054154    -0.13100
C639        C  0.39706518  0.23972740  0.14033352     0.03600
C640        C  0.37450923  0.26077987  0.14259988    -0.25200
H641        H  0.29151956  0.29170834  0.18830005     0.08700
H642        H  0.32894983  0.29700021  0.15076171     0.12300
H643        H  0.33302214  0.21196437  0.22197278     0.12200
H644        H  0.37759225  0.19388920  0.19775873     0.12000
H645        H  0.41485317  0.19926056  0.15957988     0.12500
H646        H  0.37351784  0.27931936  0.12704366     0.14500
C647        C  0.15365050  0.38160453  0.24153516    -0.05500
C648        C  0.17076650  0.37972700  0.21601765    -0.05500
C649        C  0.19183210  0.35739521  0.21326768    -0.23600
C650        C  0.19636853  0.33641895  0.23598959     0.18600
C651        C  0.17947827  0.33814670  0.26175109     0.15800
C652        C  0.15838060  0.36061968  0.26437098    -0.18700
C653        C  0.18377119  0.31718033  0.28444846    -0.20500
C654        C  0.20456682  0.29470321  0.28175148    -0.13100
C655        C  0.22176951  0.29267154  0.25635242     0.03600
C656        C  0.21744405  0.31377481  0.23345162    -0.25200
H657        H  0.16802567  0.39566514  0.19816795     0.08700
H658        H  0.20456673  0.35653164  0.19332615     0.12300
H659        H  0.14512338  0.36126587  0.28397665     0.12200
H660        H  0.17102290  0.31815852  0.30437674     0.12000
H661        H  0.20734988  0.27902812  0.29982305     0.12500
H662        H  0.23034278  0.31254884  0.21363613     0.14500
C663        C  0.17883956  0.05269477  0.43419389    -0.05500
C664        C  0.15442615  0.07069890  0.42779389    -0.05500
C665        C  0.12591089  0.05984533  0.43148697    -0.23600
C666        C  0.12076868  0.03093803  0.44258139     0.18600
C667        C  0.14470405  0.01264855  0.45015566     0.15800
C668        C  0.17364160  0.02352391  0.44574474    -0.18700
C669        C  0.13910620  0.98400949  0.46226779    -0.20500
C670        C  0.11021880  0.97399940  0.46725838    -0.13100
C671        C  0.08634424  0.99230736  0.46001519     0.03600
C672        C  0.09196538  0.02058781  0.44717891    -0.25200
H673        H  0.15719195  0.09358529  0.42013660     0.08700
H674        H  0.10779598  0.07436519  0.42606726     0.12300
H675        H  0.19191624  0.00918236  0.45095299     0.12200
H676        H  0.15705733  0.96968447  0.46861827     0.12000
H677        H  0.10662896  0.95249646  0.47798839     0.12500
H678        H  0.07388140  0.03521482  0.44190863     0.14500
C679        C  0.26526109  0.19900728  0.29485106    -0.05500
C680        C  0.28754496  0.17753192  0.29522074    -0.05500
C681        C  0.28753021  0.15405315  0.31596467    -0.23600
C682        C  0.26520767  0.15138136  0.33685745     0.18600
C683        C  0.24261772  0.17270043  0.33665705     0.15800
C684        C  0.24280419  0.19627273  0.31582807    -0.18700
C685        C  0.22015228  0.17010823  0.35731182    -0.20500
C686        C  0.21991408  0.14661574  0.37783078    -0.13100
C687        C  0.24212084  0.12504997  0.37834355     0.03600
C688        C  0.26495091  0.12776932  0.35781698    -0.25200
H689        H  0.30514113  0.17888920  0.27948650     0.08700
H690        H  0.30504547  0.13793922  0.31564004     0.12300
H691        H  0.22533173  0.21245270  0.31598605     0.12200
H692        H  0.20267249  0.18626228  0.35759336     0.12000
H693        H  0.20228729  0.14539146  0.39357537     0.12500
H694        H  0.28211860  0.11125132  0.35779249     0.14500
C695        C  0.95977621  0.41230388  0.81285070    -0.05500
C696        C  0.94051951  0.41450485  0.83671179    -0.05500
C697        C  0.95094346  0.41711039  0.86555586    -0.23600
C698        C  0.98104602  0.41806992  0.87157724     0.18600
C699        C  0.00101958  0.41651002  0.84812991     0.15800
C700        C  0.99029003  0.41358941  0.81880063    -0.18700
C701        C  0.03121812  0.41848477  0.85462949    -0.20500
C702        C  0.04124791  0.42371604  0.88362124    -0.13100
C703        C  0.02136904  0.42569581  0.90697316     0.03600
C704        C  0.99130665  0.42180961  0.90066105    -0.25200
H705        H  0.91706641  0.41429643  0.83305146     0.08700
H706        H  0.93530838  0.41872573  0.88323235     0.12300
H707        H  0.00555461  0.41199054  0.80081157     0.12200
H708        H  0.04705076  0.41731077  0.83710786     0.12000
H709        H  0.06445233  0.42715654  0.88767101     0.12500
H710        H  0.97559001  0.42397887  0.91821707     0.14500
C711        C  0.95634060  0.56546701  0.17825769    -0.05500
C712        C  0.93754920  0.56348797  0.15359131    -0.05500
C713        C  0.94823572  0.55756879  0.12561154    -0.23600
C714        C  0.97811902  0.55303836  0.12125582     0.18600
C715        C  0.99757859  0.55421319  0.14559931     0.15800
C716        C  0.98659164  0.56047447  0.17409680    -0.18700
C717        C  0.02745122  0.54871147  0.14076458    -0.20500
C718        C  0.03749493  0.54091509  0.11259452    -0.13100
C719        C  0.01815968  0.53968639  0.08828675     0.03600
C720        C  0.98854709  0.54647015  0.09296619    -0.25200
H721        H  0.91426717  0.56676522  0.15594857     0.08700
H722        H  0.93292508  0.55640744  0.10724981     0.12300
H723        H  0.00149611  0.56196193  0.19275887     0.12200
H724        H  0.04291870  0.54940389  0.15899061     0.12000
H725        H  0.06026972  0.53530029  0.10989508     0.12500
H726        H  0.97308010  0.54488758  0.07474724     0.14500
C727        C  0.02008481  0.43966287  0.09376521    -0.05500
C728        C  0.03515040  0.41247763  0.09611238    -0.05500
C729        C  0.04936660  0.40434263  0.12232159    -0.23600
C730        C  0.04960272  0.42363621  0.14657513     0.18600
C731        C  0.03397698  0.45064382  0.14487642     0.15800
C732        C  0.01867478  0.45813470  0.11879202    -0.18700
C733        C  0.03522545  0.47038234  0.16874640    -0.20500
C734        C  0.05266495  0.46404198  0.19350741    -0.13100
C735        C  0.06856722  0.43717489  0.19567089     0.03600
C736        C  0.06604603  0.41675427  0.17205497    -0.25200
H737        H  0.03706500  0.39807655  0.07716551     0.08700
H738        H  0.06137263  0.38358918  0.12313318     0.12300
H739        H  0.00769158  0.47946761  0.11726912     0.12200
H740        H  0.02338885  0.49122958  0.16793626     0.12000
H741        H  0.05409962  0.48074955  0.21057898     0.12500
H742        H  0.07699857  0.39543902  0.17311252     0.14500
C743        C  0.20904099  0.55158401  0.06463779    -0.05500
C744        C  0.18474098  0.54674452  0.08286321    -0.05500
C745        C  0.15736213  0.53919955  0.07103367    -0.23600
C746        C  0.15349880  0.53621981  0.04060917     0.18600
C747        C  0.17764375  0.54014703  0.02176131     0.15800
C748        C  0.20541561  0.54783552  0.03390845    -0.18700
C749        C  0.17333614  0.53623091  0.99127887    -0.20500
C750        C  0.14549920  0.52828942  0.97981120    -0.13100
C751        C  0.12131817  0.52488935  0.99854872     0.03600
C752        C  0.12575753  0.52906680  0.02894439    -0.25200
H753        H  0.18693809  0.54879937  0.10649450     0.08700
H754        H  0.13908813  0.53577733  0.08578100     0.12300
H755        H  0.22394974  0.55145728  0.01952098     0.12200
H756        H  0.19156452  0.53891165  0.97635302     0.12000
H757        H  0.14293155  0.52461002  0.95642783     0.12500
H758        H  0.10764357  0.52579821  0.04393077     0.14500
C759        C  0.82034626  0.41846537  0.06832519    -0.05500
C760        C  0.81806029  0.42530185  0.03803462    -0.05500
C761        C  0.84300563  0.42835419  0.02046029    -0.23600
C762        C  0.87104561  0.42389399  0.03237907     0.18600
C763        C  0.87386350  0.41552365  0.06223735     0.15800
C764        C  0.84875529  0.41334666  0.08003143    -0.18700
C765        C  0.90193410  0.41072974  0.07413379    -0.20500
C766        C  0.92696919  0.41625729  0.05721733    -0.13100
C767        C  0.92452112  0.42635926  0.02801105     0.03600
C768        C  0.89636729  0.42927000  0.01543876    -0.25200
H769        H  0.79696702  0.42827363  0.02755086     0.08700
H770        H  0.84033472  0.43446387  0.99749750     0.12300
H771        H  0.85177203  0.40863958  0.10321040     0.12200
H772        H  0.90460126  0.40419727  0.09698016     0.12000
H773        H  0.94832987  0.41498119  0.06769093     0.12500
H774        H  0.89421310  0.43815717  0.99328203     0.14500
C775        C  0.94927933  0.19879923  0.44939962    -0.05500
C776        C  0.96149457  0.19479606  0.47775856    -0.05500
C777        C  0.97735690  0.16915875  0.48513746    -0.23600
C778        C  0.98057764  0.14595029  0.46490280     0.18600
C779        C  0.96910519  0.14946047  0.43618697     0.15800
C780        C  0.95420669  0.17603376  0.42839538    -0.18700
C781        C  0.97169972  0.12575775  0.41618357    -0.20500
C782        C  0.98362029  0.09826998  0.42520836    -0.13100
C783        C  0.99419110  0.09415108  0.45410808     0.03600
C784        C  0.99366392  0.11870516  0.47346218    -0.25200
H785        H  0.95813511  0.21099080  0.49491850     0.08700
H786        H  0.98632766  0.16709442  0.50711292     0.12300
H787        H  0.94606690  0.17845807  0.40610338     0.12200
H788        H  0.96315947  0.12792326  0.39397447     0.12000
H789        H  0.98351353  0.07977133  0.40990248     0.12500
H790        H  0.00125022  0.11585438  0.49594583     0.14500
C791        C  0.62148583  0.11296663  0.27220739    -0.05500
C792        C  0.63966034  0.11084106  0.29722752    -0.05500
C793        C  0.66414162  0.12999459  0.30048914    -0.23600
C794        C  0.67073524  0.15170119  0.27886778     0.18600
C795        C  0.65210555  0.15430700  0.25400806     0.15800
C796        C  0.62771973  0.13510658  0.25091927    -0.18700
C797        C  0.65820527  0.17594722  0.23242540    -0.20500
C798        C  0.68255724  0.19491965  0.23528510    -0.13100
C799        C  0.70149166  0.19277111  0.25981604     0.03600
C800        C  0.69546220  0.17088844  0.28158079    -0.25200
H801        H  0.63531864  0.09390764  0.31387515     0.08700
H802        H  0.67804927  0.12765815  0.31979687     0.12300
H803        H  0.61352078  0.13733157  0.23178131     0.12200
H804        H  0.64410064  0.17823181  0.21324292     0.12000
H805        H  0.68647719  0.21140669  0.21811188     0.12500
H806        H  0.70969214  0.16903261  0.30071648     0.14500
C807        C  0.74852217  0.28604213  0.22626053    -0.05500
C808        C  0.72247379  0.29190925  0.21058498    -0.05500
C809        C  0.72090567  0.31558541  0.19051812    -0.23600
C810        C  0.74539844  0.33399349  0.18536104     0.18600
C811        C  0.77154594  0.32921527  0.20148856     0.15800
C812        C  0.77296629  0.30529020  0.22202432    -0.18700
C813        C  0.79589282  0.34801779  0.19612592    -0.20500
C814        C  0.79465938  0.37032553  0.17420591    -0.13100
C815        C  0.76908494  0.37430373  0.15706909     0.03600
C816        C  0.74430519  0.35637689  0.16350925    -0.25200
H817        H  0.70309476  0.27797961  0.21361737     0.08700
H818        H  0.70058459  0.31912317  0.17857018     0.12300
H819        H  0.79317368  0.30120047  0.23398407     0.12200
H820        H  0.81608664  0.34507333  0.20842958     0.12000
H821        H  0.81394727  0.38417604  0.17034833     0.12500
H822        H  0.72446775  0.35865233  0.15047757     0.14500
C823        C  0.79201526  0.22940676  0.31004848    -0.05500
C824        C  0.79436086  0.20281530  0.32678715    -0.05500
C825        C  0.81450358  0.20084739  0.35014543    -0.23600
C826        C  0.83252928  0.22553212  0.35745039     0.18600
C827        C  0.83041924  0.25225271  0.34065710     0.15800
C828        C  0.81047366  0.25392972  0.31704472    -0.18700
C829        C  0.84804630  0.27710867  0.34793299    -0.20500
C830        C  0.86743039  0.27570353  0.37175000    -0.13100
C831        C  0.86971253  0.24943286  0.38896541     0.03600
C832        C  0.85231177  0.22418670  0.38142197    -0.25200
H833        H  0.78052480  0.18349022  0.32191056     0.08700
H834        H  0.81574385  0.18013253  0.36268868     0.12300
H835        H  0.80892347  0.27465763  0.30454511     0.12200
H836        H  0.84677108  0.29774561  0.33525818     0.12000
H837        H  0.88091846  0.29528732  0.37658728     0.12500
H838        H  0.85366416  0.20383566  0.39453273     0.14500
C839        C  0.06545527  0.54139992  0.80001951    -0.05500
C840        C  0.06033638  0.51040559  0.80380200    -0.05500
C841        C  0.04610399  0.49913611  0.82870983    -0.23600
C842        C  0.03704633  0.51847276  0.85089210     0.18600
C843        C  0.04161539  0.54970911  0.84753760     0.15800
C844        C  0.05541923  0.56105126  0.82193571    -0.18700
C845        C  0.03353718  0.56879282  0.87051931    -0.20500
C846        C  0.02311240  0.55683377  0.89723593    -0.13100
C847        C  0.01912580  0.52572086  0.90091789     0.03600
C848        C  0.02500166  0.50686568  0.87706268    -0.25200
H849        H  0.06819270  0.49459898  0.78783582     0.08700
H850        H  0.04306773  0.47514214  0.83103338     0.12300
H851        H  0.05893162  0.58501989  0.81942119     0.12200
H852        H  0.03670591  0.59284248  0.86841102     0.12000
H853        H  0.01891051  0.57180483  0.91531033     0.12500
H854        H  0.02234592  0.48287021  0.87969624     0.14500
C855        C  0.08319625  0.98620540  0.54957673    -0.05500
C856        C  0.08117888  0.95732165  0.56235491    -0.05500
C857        C  0.10618089  0.94118102  0.56984795    -0.23600
C858        C  0.13412945  0.95345348  0.56498984     0.18600
C859        C  0.13678574  0.98284350  0.55328094     0.15800
C860        C  0.11132988  0.99910170  0.54554628    -0.18700
C861        C  0.16490868  0.99506279  0.54887599    -0.20500
C862        C  0.18992239  0.97826509  0.55548167    -0.13100
C863        C  0.18770762  0.94841785  0.56609612     0.03600
C864        C  0.15935864  0.93645059  0.57108308    -0.25200
H865        H  0.06003576  0.94649968  0.56559119     0.08700
H866        H  0.10359906  0.91875125  0.57888172     0.12300
H867        H  0.11345992  0.02099313  0.53522545     0.12200
H868        H  0.16760770  0.01761294  0.54020325     0.12000
H869        H  0.21110704  0.98891534  0.55219892     0.12500
H870        H  0.15671809  0.91357137  0.57886515     0.14500
C871        C  0.21760748  0.69507232  0.73950419    -0.05500
C872        C  0.19873943  0.69396516  0.71488873    -0.05500
C873        C  0.17594136  0.67272602  0.71323567    -0.23600
C874        C  0.17127667  0.65216312  0.73624782     0.18600
C875        C  0.18944131  0.65340562  0.76153422     0.15800
C876        C  0.21256100  0.67476919  0.76299037    -0.18700
C877        C  0.18434732  0.63296146  0.78466799    -0.20500
C878        C  0.16205602  0.61103875  0.78239028    -0.13100
C879        C  0.14436306  0.60905848  0.75692273     0.03600
C880        C  0.14895856  0.63015947  0.73413710    -0.25200
H881        H  0.20193694  0.70919034  0.69649524     0.08700
H882        H  0.16212833  0.67217537  0.69373101     0.12300
H883        H  0.22666037  0.67545686  0.78229365     0.12200
H884        H  0.19789723  0.63361849  0.80435274     0.12000
H885        H  0.15920763  0.59510307  0.80025913     0.12500
H886        H  0.13515702  0.62943097  0.71462201     0.14500
C887        C  0.26660392  0.78611726  0.69906058    -0.05500
C888        C  0.29085252  0.80589749  0.69678183    -0.05500
C889        C  0.29084737  0.82985258  0.67646158    -0.23600
C890        C  0.26653438  0.83480491  0.65793655     0.18600
C891        C  0.24196780  0.81530420  0.66008726     0.15800
C892        C  0.24218532  0.79117429  0.68041789    -0.18700
C893        C  0.21751448  0.82027447  0.64185192    -0.20500
C894        C  0.21727035  0.84429568  0.62175983    -0.13100
C895        C  0.24154138  0.86393673  0.61909347     0.03600
C896        C  0.26627941  0.85884835  0.63735659    -0.25200
H897        H  0.30997241  0.80281386  0.71065248     0.08700
H898        H  0.30993271  0.84455543  0.67526257     0.12300
H899        H  0.22315555  0.77638332  0.68172730     0.12200
H900        H  0.19847811  0.80550360  0.64309256     0.12000
H901        H  0.19815551  0.84720768  0.60783445     0.12500
H902        H  0.28517144  0.87378461  0.63578993     0.14500
C903        C  0.31287466  0.72829711  0.78174211    -0.05500
C904        C  0.31240638  0.70301822  0.80060862    -0.05500
C905        C  0.33376485  0.69929433  0.82258943    -0.23600
C906        C  0.35613198  0.72085316  0.82648839     0.18600
C907        C  0.35746875  0.74593448  0.80730823     0.15800
C908        C  0.33604810  0.74938850  0.78493949    -0.18700
C909        C  0.37973242  0.76763254  0.81141035    -0.20500
C910        C  0.39964893  0.76516708  0.83492691    -0.13100
C911        C  0.39811824  0.74074610  0.85465344     0.03600
C912        C  0.37660126  0.71822428  0.84979150    -0.25200
H913        H  0.29518704  0.68613545  0.79872968     0.08700
H914        H  0.33240226  0.67983519  0.83694376     0.12300
H915        H  0.33698999  0.76890641  0.77064322     0.12200
H916        H  0.38131890  0.78689680  0.79686009     0.12000
H917        H  0.41620478  0.78260454  0.83788166     0.12500
H918        H  0.37499403  0.69935730  0.86487791     0.14500
C919        C  0.56990120  0.91487084  0.00761154    -0.05500
C920        C  0.58431738  0.91672875  0.03510227    -0.05500
C921        C  0.59410797  0.89087272  0.04966625    -0.23600
C922        C  0.58995641  0.86246838  0.03704376     0.18600
C923        C  0.57829079  0.86048866  0.00825493     0.15800
C924        C  0.56854407  0.88667095  0.99361325    -0.18700
C925        C  0.57473054  0.83211210  0.99544280    -0.20500
C926        C  0.58076843  0.80594475  0.01157790    -0.13100
C927        C  0.59025860  0.80730437  0.04115792     0.03600
C928        C  0.59577976  0.83603629  0.05329538    -0.25200
H929        H  0.58594720  0.93790567  0.04655052     0.08700
H930        H  0.60351199  0.89297957  0.07154360     0.12300
H931        H  0.55756707  0.88463391  0.97244809     0.12200
H932        H  0.56633483  0.83006297  0.97315546     0.12000
H933        H  0.57747459  0.78454567  0.00089001     0.12500
H934        H  0.60306807  0.83807786  0.07592744     0.14500
C935        C  0.43941378  0.79104752  0.94507411    -0.05500
C936        C  0.41523975  0.81025977  0.94682279    -0.05500
C937        C  0.41705913  0.83712292  0.96248160    -0.23600
C938        C  0.44295661  0.84535736  0.97726945     0.18600
C939        C  0.46673272  0.82546085  0.97758477     0.15800
C940        C  0.46492178  0.79856531  0.96137993    -0.18700
C941        C  0.49227524  0.83337412  0.99329492    -0.20500
C942        C  0.49497362  0.86149663  0.00674427    -0.13100
C943        C  0.47252224  0.88257936  0.00413887     0.03600
C944        C  0.44599091  0.87375954  0.99045763    -0.25200
H945        H  0.39480147  0.80474524  0.93574527     0.08700
H946        H  0.39835061  0.85176150  0.96250657     0.12300
H947        H  0.48378708  0.78419930  0.96055629     0.12200
H948        H  0.51058423  0.81824106  0.99429520     0.12000
H949        H  0.51542836  0.86751888  0.01744705     0.12500
H950        H  0.42835736  0.88967686  0.98850207     0.14500
C951        C  0.54069091  0.98976573  0.11073474    -0.05500
C952        C  0.53929768  0.96900220  0.13407256    -0.05500
C953        C  0.54507605  0.97836067  0.16300810    -0.23600
C954        C  0.55243812  0.00854101  0.16882281     0.18600
C955        C  0.55537783  0.02897308  0.14507992     0.15800
C956        C  0.54966920  0.01942920  0.11637846    -0.18700
C957        C  0.56288205  0.05902322  0.15037093    -0.20500
C958        C  0.56689055  0.06906807  0.17904618    -0.13100
C959        C  0.56347096  0.04931758  0.20302242     0.03600
C960        C  0.55634896  0.01891460  0.19781072    -0.25200
H961        H  0.53218600  0.94606080  0.13015505     0.08700
H962        H  0.54288091  0.96228555  0.18085552     0.12300
H963        H  0.55100528  0.03551241  0.09840596     0.12200
H964        H  0.56520583  0.07488079  0.13234298     0.12000
H965        H  0.57221856  0.09255971  0.18255739     0.12500
H966        H  0.55397126  0.00349606  0.21620077     0.14500
C967        C  0.43809098  0.97453595  0.08885594    -0.05500
C968        C  0.40830443  0.98073176  0.09217156    -0.05500
C969        C  0.39455971  0.97490555  0.11927212    -0.23600
C970        C  0.41069344  0.96386660  0.14353956     0.18600
C971        C  0.44089970  0.95885515  0.14041875     0.15800
C972        C  0.45408687  0.96377292  0.11323903    -0.18700
C973        C  0.45761433  0.94894492  0.16448744    -0.20500
C974        C  0.44443718  0.94325471  0.19148412    -0.13100
C975        C  0.41424778  0.94716963  0.19492425     0.03600
C976        C  0.39743360  0.95768402  0.17082226    -0.25200
H977        H  0.39574566  0.98960062  0.07389300     0.08700
H978        H  0.37137001  0.97922085  0.12132468     0.12300
H979        H  0.47734036  0.95977596  0.11124823     0.12200
H980        H  0.48090584  0.94526385  0.16234843     0.12000
H981        H  0.45773896  0.93489186  0.20949933     0.12500
H982        H  0.37412813  0.96105029  0.17335090     0.14500
C983        C  0.46009820  0.19162410  0.06489565    -0.05500
C984        C  0.46792892  0.16787613  0.08376550    -0.05500
C985        C  0.47438520  0.13962643  0.07281779    -0.23600
C986        C  0.47328929  0.13423346  0.04254360     0.18600
C987        C  0.46689621  0.15794953  0.02283576     0.15800
C988        C  0.46034340  0.18673731  0.03413851    -0.18700
C989        C  0.46665023  0.15201351  0.99237166    -0.20500
C990        C  0.47212166  0.12290421  0.98182125    -0.13100
C991        C  0.47726112  0.09913004  0.00156251     0.03600
C992        C  0.47805336  0.10521852  0.03187629    -0.25200
H993        H  0.46840966  0.17105016  0.10737366     0.08700
H994        H  0.47969001  0.12178715  0.08815275     0.12300
H995        H  0.45442280  0.20477707  0.01927326     0.12200
H996        H  0.46200105  0.16977925  0.97675223     0.12000
H997        H  0.47154774  0.11881198  0.95837593     0.12500
H998        H  0.48246544  0.08716340  0.04729807     0.14500
C999        C  0.56640508  0.07154820  0.00054005    -0.05500
C1000       C  0.58500850  0.07105164  0.97610787    -0.05500
C1001       C  0.59197931  0.09754358  0.96070474    -0.23600
C1002       C  0.58036404  0.12511420  0.96926520     0.18600
C1003       C  0.56374055  0.12635463  0.99512566     0.15800
C1004       C  0.55740685  0.09976613  0.01094430    -0.18700
C1005       C  0.55239586  0.15390096  0.00382136    -0.20500
C1006       C  0.55695252  0.17986517  0.98678077    -0.13100
C1007       C  0.57226893  0.17903663  0.95990442     0.03600
C1008       C  0.58414980  0.15109954  0.95172400    -0.25200
H1009       H  0.59226817  0.04990346  0.96743561     0.08700
H1010       H  0.60519667  0.09618882  0.94112281     0.12300
H1011       H  0.54311335  0.10083916  0.02978978     0.12200
H1012       H  0.53969793  0.15536947  0.02376721     0.12000
H1013       H  0.54836533  0.20051723  0.99510942     0.12500
H1014       H  0.59554074  0.14876748  0.93120572     0.14500
C1015       C  0.04018783  0.18400550  0.57975915    -0.05500
C1016       C  0.05901802  0.16021863  0.58701130    -0.05500
C1017       C  0.04938694  0.13034860  0.58519248    -0.23600
C1018       C  0.02084552  0.12349940  0.57558880     0.18600
C1019       C  0.00126630  0.14708446  0.56967630     0.15800
C1020       C  0.01098035  0.17712751  0.57195155    -0.18700
C1021       C  0.97280186  0.14022142  0.55981342    -0.20500
C1022       C  0.96495536  0.11073856  0.55254225    -0.13100
C1023       C  0.98505786  0.08737977  0.55601214     0.03600
C1024       C  0.01234472  0.09368407  0.56946599    -0.25200
H1025       H  0.08166315  0.16458810  0.59302291     0.08700
H1026       H  0.06469969  0.11260094  0.58999801     0.12300
H1027       H  0.99602621  0.19511488  0.56685479     0.12200
H1028       H  0.95733533  0.15794486  0.55552566     0.12000
H1029       H  0.94387277  0.10658068  0.54214008     0.12500
H1030       H  0.02818580  0.07597826  0.57210961     0.14500
C1031       C  0.41973165  0.07120991  0.81864421    -0.05500
C1032       C  0.42774939  0.09173012  0.84077961    -0.05500
C1033       C  0.43334411  0.08205438  0.86950228    -0.23600
C1034       C  0.43120229  0.05153409  0.87685400     0.18600
C1035       C  0.42293314  0.03048900  0.85511348     0.15800
C1036       C  0.41729668  0.04044560  0.82602083    -0.18700
C1037       C  0.42127962  0.99986649  0.86282560    -0.20500
C1038       C  0.42978329  0.99010765  0.89109436    -0.13100
C1039       C  0.43974503  0.01083999  0.91223810     0.03600
C1040       C  0.43885458  0.04167462  0.90524406    -0.25200
H1041       H  0.43002729  0.11544351  0.83574159     0.08700
H1042       H  0.43986561  0.09844918  0.88588372     0.12300
H1043       H  0.41092393  0.02441356  0.80925130     0.12200
H1044       H  0.41486624  0.98332897  0.84656566     0.12000
H1045       H  0.43077198  0.96624536  0.89560422     0.12500
H1046       H  0.44660339  0.05797311  0.92123950     0.14500
C1047       C  0.11857728  0.43913362  0.00371039    -0.05500
C1048       C  0.14394647  0.44514942  0.02053915    -0.05500
C1049       C  0.17180820  0.44099980  0.00852098    -0.23600
C1050       C  0.17469992  0.43177121  0.97917465     0.18600
C1051       C  0.14923961  0.42530455  0.96247053     0.15800
C1052       C  0.12163002  0.42788065  0.97510681    -0.18700
C1053       C  0.15153205  0.41808312  0.93276218    -0.20500
C1054       C  0.17881630  0.41743446  0.91947044    -0.13100
C1055       C  0.20485669  0.42233725  0.93582702     0.03600
C1056       C  0.20240622  0.42959186  0.96596886    -0.25200
H1057       H  0.14228450  0.45445009  0.04237352     0.08700
H1058       H  0.19104307  0.44639142  0.02169248     0.12300
H1059       H  0.10237594  0.42336998  0.96162554     0.12200
H1060       H  0.13208872  0.41384476  0.91948488     0.12000
H1061       H  0.17917753  0.41334283  0.89607984     0.12500
H1062       H  0.22181764  0.43342594  0.97931622     0.14500
C1063       C  0.20226815  0.25917737  0.68311941    -0.05500
C1064       C  0.19923699  0.23103805  0.66950766    -0.05500
C1065       C  0.17555723  0.22469341  0.65109419    -0.23600
C1066       C  0.15435569  0.24633560  0.64581723     0.18600
C1067       C  0.15699283  0.27482913  0.65911940     0.15800
C1068       C  0.18098152  0.28111067  0.67783374    -0.18700
C1069       C  0.13552716  0.29634843  0.65344563    -0.20500
C1070       C  0.11164696  0.28950568  0.63499639    -0.13100
C1071       C  0.10888799  0.26104910  0.62193926     0.03600
C1072       C  0.13056671  0.23974480  0.62735321    -0.25200
H1073       H  0.21504507  0.21356342  0.67332832     0.08700
H1074       H  0.17376441  0.20273903  0.64108255     0.12300
H1075       H  0.18307697  0.30289294  0.68814853     0.12200
H1076       H  0.13714494  0.31836339  0.66332234     0.12000
H1077       H  0.09521652  0.30636704  0.63115035     0.12500
H1078       H  0.12920670  0.21805182  0.61675467     0.14500
C1079       C  0.29467581  0.22393617  0.72401903    -0.05500
C1080       C  0.29478373  0.20172513  0.70218632    -0.05500
C1081       C  0.31386731  0.17771155  0.70414577    -0.23600
C1082       C  0.33332657  0.17537982  0.72796260     0.18600
C1083       C  0.33412809  0.19792604  0.74964598     0.15800
C1084       C  0.31487709  0.22216890  0.74751097    -0.18700
C1085       C  0.35378634  0.19548342  0.77337353    -0.20500
C1086       C  0.37218823  0.17077339  0.77573219    -0.13100
C1087       C  0.37119546  0.14790963  0.75452368     0.03600
C1088       C  0.35165337  0.15056346  0.73059334    -0.25200
H1089       H  0.27968068  0.20252584  0.68370663     0.08700
H1090       H  0.31309539  0.16073514  0.68723492     0.12300
H1091       H  0.31508445  0.23906096  0.76450131     0.12200
H1092       H  0.35485232  0.21257799  0.79014307     0.12000
H1093       H  0.38735176  0.16967410  0.79414729     0.12500
H1094       H  0.35013773  0.13298413  0.71432886     0.14500
C1095       C  0.24960060  0.31410658  0.76519592    -0.05500
C1096       C  0.22745273  0.33569047  0.76523991    -0.05500
C1097       C  0.22602108  0.35664965  0.78789566    -0.23600
C1098       C  0.24660513  0.35626486  0.81097197     0.18600
C1099       C  0.26918131  0.33496683  0.81083662     0.15800
C1100       C  0.27063123  0.31425535  0.78796131    -0.18700
C1101       C  0.28972685  0.33431511  0.83387127    -0.20500
C1102       C  0.28784546  0.35444615  0.85703197    -0.13100
C1103       C  0.26544028  0.37562562  0.85755868     0.03600
C1104       C  0.24486769  0.37650451  0.83436232    -0.25200
H1105       H  0.21099725  0.33618418  0.74795586     0.08700
H1106       H  0.20860070  0.37286832  0.78757445     0.12300
H1107       H  0.28784687  0.29780514  0.78834461     0.12200
H1108       H  0.30706767  0.31801650  0.83414330     0.12000
H1109       H  0.30364371  0.35309461  0.87488877     0.12500
H1110       H  0.22760680  0.39291437  0.83455746     0.14500
C1111       C  0.92013121  0.52886662  0.96784250    -0.05500
C1112       C  0.91645783  0.56005280  0.96797879    -0.05500
C1113       C  0.89005268  0.57241516  0.95790024    -0.23600
C1114       C  0.86696336  0.55372734  0.94781309     0.18600
C1115       C  0.87030151  0.52233026  0.94857154     0.15800
C1116       C  0.89665628  0.51025558  0.95846023    -0.18700
C1117       C  0.84742345  0.50337443  0.93896452    -0.20500
C1118       C  0.82162942  0.51540409  0.92769493    -0.13100
C1119       C  0.81821515  0.54660376  0.92580595     0.03600
C1120       C  0.84084477  0.56570462  0.93644754    -0.25200
H1121       H  0.93408415  0.57477890  0.97531089     0.08700
H1122       H  0.88780408  0.59659352  0.95767274     0.12300
H1123       H  0.89882984  0.48604117  0.95876229     0.12200
H1124       H  0.84972595  0.47919500  0.93958386     0.12000
H1125       H  0.80472362  0.50028451  0.91944448     0.12500
H1126       H  0.83827250  0.58984193  0.93546489     0.14500
C1127       C  0.94954526  0.78770965  0.55626785    -0.05500
C1128       C  0.95794151  0.79258130  0.52684871    -0.05500
C1129       C  0.97028808  0.82018531  0.51776435    -0.23600
C1130       C  0.97390137  0.84399358  0.53764835     0.18600
C1131       C  0.96604617  0.83948759  0.56726844     0.15800
C1132       C  0.95482823  0.81132625  0.57649726    -0.18700
C1133       C  0.96851721  0.86358238  0.58700105    -0.20500
C1134       C  0.97734857  0.89221306  0.57718328    -0.13100
C1135       C  0.98504678  0.89711946  0.54772684     0.03600
C1136       C  0.98409130  0.87254002  0.52823537    -0.25200
H1137       H  0.95419687  0.77540486  0.51050496     0.08700
H1138       H  0.97613578  0.82320722  0.49489767     0.12300
H1139       H  0.94981214  0.80819472  0.59952728     0.12200
H1140       H  0.96247801  0.86057457  0.60981395     0.12000
H1141       H  0.97766694  0.91070371  0.59251893     0.12500
H1142       H  0.98953642  0.87604059  0.50533172     0.14500
C1143       C  0.76833480  0.71780279  0.79737284    -0.05500
C1144       C  0.74739669  0.71850705  0.81989597    -0.05500
C1145       C  0.74390440  0.69445650  0.83939127    -0.23600
C1146       C  0.76136343  0.66913351  0.83702115     0.18600
C1147       C  0.78312433  0.66831458  0.81514090     0.15800
C1148       C  0.78647751  0.69264166  0.79541281    -0.18700
C1149       C  0.80088568  0.64301769  0.81326491    -0.20500
C1150       C  0.79697435  0.61879964  0.83271364    -0.13100
C1151       C  0.77501679  0.61927713  0.85415943     0.03600
C1152       C  0.75732138  0.64460817  0.85617508    -0.25200
H1153       H  0.73315762  0.73749581  0.82222559     0.08700
H1154       H  0.72727586  0.69556354  0.85618205     0.12300
H1155       H  0.80283886  0.69173783  0.77833936     0.12200
H1156       H  0.81776239  0.64193207  0.79673517     0.12000
H1157       H  0.81088888  0.59948641  0.83080505     0.12500
H1158       H  0.74066489  0.64537805  0.87298397     0.14500
C1159       C  0.80712135  0.76298087  0.70515996    -0.05500
C1160       C  0.80722854  0.78639061  0.68420038    -0.05500
C1161       C  0.82512818  0.78534134  0.65946376    -0.23600
C1162       C  0.84339502  0.76084211  0.65506130     0.34200
C1163       C  0.84366010  0.73718806  0.67590670     0.15800
C1164       C  0.82558799  0.73837168  0.70078732    -0.18700
C1165       C  0.86200845  0.71273161  0.67149656    -0.20500
C1166       C  0.87993479  0.71177244  0.64674555    -0.13100
C1167       C  0.87982932  0.73512059  0.62567912     0.03600
C1168       C  0.86133699  0.75964857  0.63012255    -0.25200
H1169       H  0.79337811  0.80566656  0.68683303     0.08700
H1170       H  0.82465386  0.80370294  0.64376304     0.12300
H1171       H  0.82584890  0.72008402  0.71658289     0.12200
H1172       H  0.86263066  0.69442612  0.68725711     0.12000
H1173       H  0.89427383  0.69284252  0.64435137     0.12500
H1174       H  0.86059457  0.77765331  0.61403571     0.14500
C1175       C  0.58246743  0.96095255  0.79376214    -0.05500
C1176       C  0.56997252  0.98964500  0.79179725    -0.05500
C1177       C  0.56060369  0.00452085  0.81711459    -0.23600
C1178       C  0.56323651  0.99096251  0.84500120     0.18600
C1179       C  0.57661745  0.96259655  0.84721196     0.15800
C1180       C  0.58626166  0.94802548  0.82183011    -0.18700
C1181       C  0.57905566  0.94850401  0.87468129    -0.20500
C1182       C  0.56709964  0.96148643  0.89951686    -0.13100
C1183       C  0.55278653  0.98914096  0.89777815     0.03600
C1184       C  0.55163238  0.00436924  0.87048937    -0.25200
H1185       H  0.56719969  0.00049853  0.77062047     0.08700
H1186       H  0.55061935  0.02633446  0.81476583     0.12300
H1187       H  0.59546777  0.92581568  0.82387675     0.12200
H1188       H  0.58928878  0.92680131  0.87681733     0.12000
H1189       H  0.56819783  0.94930449  0.92020227     0.12500
H1190       H  0.54021567  0.02547173  0.86875384     0.14500
C1191       C  0.64806100  0.88875728  0.74115894    -0.05500
C1192       C  0.66419049  0.88664722  0.71503758    -0.05500
C1193       C  0.68812460  0.86759745  0.71328783    -0.23600
C1194       C  0.69650543  0.85014938  0.73760958     0.18600
C1195       C  0.68087103  0.85248680  0.76417414     0.15800
C1196       C  0.65690454  0.87184508  0.76583826    -0.18700
C1197       C  0.68909888  0.83492885  0.78844576    -0.20500
C1198       C  0.71204107  0.81474098  0.78627374    -0.13100
C1199       C  0.72743775  0.81166779  0.75980061     0.03600
C1200       C  0.71980167  0.82995443  0.73564050    -0.25200
H1201       H  0.65818618  0.89973529  0.69582278     0.08700
H1202       H  0.69987049  0.86625044  0.69274277     0.12300
H1203       H  0.64454896  0.87298204  0.78604309     0.12200
H1204       H  0.67745906  0.83643679  0.80903869     0.12000
H1205       H  0.71745500  0.80117796  0.80535115     0.12500
H1206       H  0.73131755  0.82782136  0.71502835     0.14500
C1207       C  0.52785127  0.39839727  0.05292653    -0.05500
C1208       C  0.54440792  0.37327092  0.04537019    -0.05500
C1209       C  0.53431030  0.34399282  0.05190018    -0.23600
C1210       C  0.50691364  0.33915097  0.06517666     0.18600
C1211       C  0.49054770  0.36430355  0.07335336     0.15800
C1212       C  0.50140107  0.39354241  0.06798339    -0.18700
C1213       C  0.46274845  0.35997202  0.08535220    -0.20500
C1214       C  0.45093482  0.33112216  0.08892747    -0.13100
C1215       C  0.46695476  0.30532882  0.08187122     0.03600
C1216       C  0.49524192  0.30980344  0.06980549    -0.25200
H1217       H  0.56463163  0.37621966  0.03337329     0.08700
H1218       H  0.54731887  0.32512458  0.04534147     0.12300
H1219       H  0.48803673  0.41250731  0.07353758     0.12200
H1220       H  0.44966262  0.37903542  0.09124659     0.12000
H1221       H  0.42875993  0.32935379  0.09688705     0.12500
H1222       H  0.50827340  0.29068346  0.06408452     0.14500
C1223       C  0.51774803  0.39767276  0.95234827    -0.05500
C1224       C  0.52871316  0.39580938  0.92361460    -0.05500
C1225       C  0.53685127  0.36800710  0.91193056    -0.23600
C1226       C  0.53534559  0.34162811  0.92915974     0.18600
C1227       C  0.52383722  0.34324697  0.95774348     0.15800
C1228       C  0.51445714  0.37088081  0.96879186    -0.18700
C1229       C  0.52332102  0.31752534  0.97554598    -0.20500
C1230       C  0.53551761  0.29082602  0.96595966    -0.13100
C1231       C  0.54752157  0.28830441  0.93756937     0.03600
C1232       C  0.54630601  0.31405437  0.91892239    -0.25200
H1233       H  0.53172181  0.41596132  0.91047886     0.08700
H1234       H  0.54560665  0.36739474  0.88988627     0.12300
H1235       H  0.50649955  0.37178299  0.99114610     0.12200
H1236       H  0.51455554  0.31834648  0.99756277     0.12000
H1237       H  0.53641321  0.27262937  0.98172316     0.12500
H1238       H  0.55450012  0.31323034  0.89672555     0.14500
C1239       C  0.71231223  0.43866495  0.08620278    -0.05500
C1240       C  0.68772327  0.41921420  0.08708651    -0.05500
C1241       C  0.66017078  0.42865749  0.07751152    -0.23600
C1242       C  0.65629975  0.45793331  0.06685960     0.18600
C1243       C  0.68058290  0.47794186  0.06575451     0.15800
C1244       C  0.70853336  0.46813985  0.07524707    -0.18700
C1245       C  0.67636297  0.50724819  0.05495128    -0.20500
C1246       C  0.64865781  0.51636807  0.04481534    -0.13100
C1247       C  0.62445791  0.49644378  0.04537297     0.03600
C1248       C  0.62860340  0.46726762  0.05682141    -0.25200
H1249       H  0.68991121  0.39632971  0.09489138     0.08700
H1250       H  0.64183545  0.41291961  0.07833765     0.12300
H1251       H  0.72719260  0.48346772  0.07443314     0.12200
H1252       H  0.69464337  0.52302703  0.05387351     0.12000
H1253       H  0.64636087  0.53875054  0.03578927     0.12500
H1254       H  0.61036439  0.45135534  0.05720773     0.14500
C1255       C  0.70871539  0.54698550  0.90861607    -0.05500
C1256       C  0.68523831  0.56708375  0.90883430    -0.05500
C1257       C  0.65725451  0.55761541  0.91727800    -0.23600
C1258       C  0.65200134  0.52789301  0.92620787     0.18600
C1259       C  0.67500073  0.50712202  0.92560369     0.15800
C1260       C  0.70313996  0.51670146  0.91655123    -0.18700
C1261       C  0.66958700  0.47746045  0.93505521    -0.20500
C1262       C  0.64217000  0.46893610  0.94636777    -0.13100
C1263       C  0.61947281  0.48979806  0.94803890     0.03600
C1264       C  0.62444409  0.51904222  0.93700235    -0.25200
H1265       H  0.68862189  0.59055886  0.90344888     0.08700
H1266       H  0.63985992  0.57388101  0.91770763     0.12300
H1267       H  0.72073644  0.50067039  0.91613911     0.12200
H1268       H  0.68690229  0.46109712  0.93471772     0.12000
H1269       H  0.63910400  0.44637375  0.95485227     0.12500
H1270       H  0.60728695  0.53553949  0.93822403     0.14500
C1271       C  0.56008698  0.69806421  0.06224153    -0.05500
C1272       C  0.54405552  0.69644596  0.03540825    -0.05500
C1273       C  0.52912246  0.67019351  0.02675378    -0.23600
C1274       C  0.53048981  0.64399956  0.04385665     0.18600
C1275       C  0.54548970  0.64492845  0.07107341     0.15800
C1276       C  0.55939137  0.67192762  0.08042185    -0.18700
C1277       C  0.54754870  0.61836364  0.08783154    -0.20500
C1278       C  0.53689968  0.59088709  0.07674291    -0.13100
C1279       C  0.52293269  0.58940677  0.04909684     0.03600
C1280       C  0.51866387  0.61652770  0.03338785    -0.25200
H1281       H  0.54353507  0.71488170  0.01998671     0.08700
H1282       H  0.51752225  0.67007052  0.00584003     0.12300
H1283       H  0.57025295  0.67180308  0.10163028     0.12200
H1284       H  0.55882779  0.61851666  0.10892088     0.12000
H1285       H  0.54056592  0.57056370  0.08933300     0.12500
H1286       H  0.50818273  0.61595770  0.01189671     0.14500
C1287       C  0.46094714  0.68137726  0.92439417    -0.05500
C1288       C  0.44283456  0.65570505  0.92177116    -0.05500
C1289       C  0.45365831  0.62707762  0.92700808    -0.23600
C1290       C  0.48291340  0.62318816  0.93536250     0.18600
C1291       C  0.50137125  0.64861017  0.93944345     0.15800
C1292       C  0.49026270  0.67772343  0.93398045    -0.18700
C1293       C  0.53044376  0.64418408  0.94888943    -0.20500
C1294       C  0.54073040  0.61507437  0.95473459    -0.13100
C1295       C  0.52247760  0.58967202  0.95041054     0.03600
C1296       C  0.49365630  0.59415663  0.94027197    -0.25200
H1297       H  0.42009107  0.65777350  0.91527391     0.08700
H1298       H  0.43904598  0.60785403  0.92436495     0.12300
H1299       H  0.50449323  0.69728269  0.93640237     0.12200
H1300       H  0.54501705  0.66326526  0.95247344     0.12000
H1301       H  0.56276753  0.61244036  0.96323537     0.12500
H1302       H  0.47893005  0.57501107  0.93762305     0.14500
C1303       C  0.31927588  0.54506383  0.07153818    -0.05500
C1304       C  0.32194230  0.53904089  0.04136445    -0.05500
C1305       C  0.34794586  0.52844781  0.02995309    -0.23600
C1306       C  0.37230021  0.52410440  0.04827087     0.18600
C1307       C  0.37034984  0.52942699  0.07871022     0.15800
C1308       C  0.34371978  0.53984731  0.09026946    -0.18700
C1309       C  0.39531293  0.52480125  0.09664533    -0.20500
C1310       C  0.42211836  0.51637859  0.08419376    -0.13100
C1311       C  0.42426793  0.51262127  0.05366789     0.03600
C1312       C  0.39889469  0.51560482  0.03616536    -0.25200
H1313       H  0.30408597  0.54332912  0.02617523     0.08700
H1314       H  0.34923480  0.52441297  0.00653611     0.12300
H1315       H  0.34211417  0.54401291  0.11361977     0.12200
H1316       H  0.39430643  0.52845568  0.12011368     0.12000
H1317       H  0.44129304  0.51399391  0.09816790     0.12500
H1318       H  0.40004630  0.51217676  0.01263636     0.14500
C1319       C  0.31495969  0.44057820  0.93205999    -0.05500
C1320       C  0.31920252  0.43851467  0.96263519    -0.05500
C1321       C  0.34650281  0.44508250  0.97527554    -0.23600
C1322       C  0.37015411  0.45390306  0.95759042     0.18600
C1323       C  0.36615867  0.45707021  0.92695318     0.15800
C1324       C  0.33854592  0.45045473  0.91435447    -0.18700
C1325       C  0.38996818  0.46646559  0.90952892    -0.20500
C1326       C  0.41745218  0.47273453  0.92243892    -0.13100
C1327       C  0.42166046  0.46912820  0.95286199     0.03600
C1328       C  0.39775928  0.45954907  0.97018309    -0.25200
H1329       H  0.30171100  0.43055559  0.97674316     0.08700
H1330       H  0.34925607  0.44272630  0.99885138     0.12300
H1331       H  0.33554563  0.45251765  0.89078098     0.12200
H1332       H  0.38730577  0.46905743  0.88597442     0.12000
H1333       H  0.43540642  0.48016597  0.90866876     0.12500
H1334       H  0.40042460  0.45698851  0.99376927     0.14500
C1335       C  0.09548198  0.45259254  0.30340391    -0.05500
C1336       C  0.08577826  0.48240346  0.30425890    -0.05500
C1337       C  0.08016791  0.49640152  0.33103075    -0.23600
C1338       C  0.08398078  0.48095638  0.35774547     0.18600
C1339       C  0.09393742  0.45111287  0.35744057     0.15800
C1340       C  0.09984689  0.43721626  0.33036757    -0.18700
C1341       C  0.09648598  0.43526950  0.38416305    -0.20500
C1342       C  0.08742400  0.44816992  0.41054255    -0.13100
C1343       C  0.07680121  0.47758658  0.41098901     0.03600
C1344       C  0.07624609  0.49423418  0.38456686    -0.25200
H1345       H  0.08265580  0.49509914  0.28411756     0.08700
H1346       H  0.07231692  0.51921893  0.33078866     0.12300
H1347       H  0.10682244  0.41410048  0.33030188     0.12200
H1348       H  0.10385941  0.41229362  0.38443443     0.12000
H1349       H  0.08697381  0.43451000  0.43036273     0.12500
H1350       H  0.06677810  0.51639597  0.38439508     0.14500
C1351       C  0.93621575  0.54971637  0.28878254    -0.05500
C1352       C  0.91374566  0.55000222  0.31004161    -0.05500
C1353       C  0.91759984  0.53723736  0.33804041    -0.23600
C1354       C  0.94361852  0.52275690  0.34552360     0.18600
C1355       C  0.96554719  0.52019224  0.32398219     0.15800
C1356       C  0.96185416  0.53380207  0.29599272    -0.18700
C1357       C  0.99130056  0.50491704  0.33119728    -0.20500
C1358       C  0.99588531  0.49368349  0.35970836    -0.13100
C1359       C  0.97489903  0.49739011  0.38167577     0.03600
C1360       C  0.94848904  0.51156263  0.37433099    -0.25200
H1361       H  0.89293143  0.56023090  0.30533918     0.08700
H1362       H  0.90018382  0.53891303  0.35396348     0.12300
H1363       H  0.97954862  0.53287579  0.28036813     0.12200
H1364       H  0.00834810  0.50242731  0.31501227     0.12000
H1365       H  0.01645385  0.48312074  0.36499650     0.12500
H1366       H  0.93235001  0.51496967  0.39128121     0.14500
C1367       C  0.07395765  0.51409461  0.58264678    -0.05500
C1368       C  0.08363044  0.54407201  0.58523630    -0.05500
C1369       C  0.09217465  0.55581591  0.61256045    -0.23600
C1370       C  0.09031609  0.53813611  0.63818056     0.18600
C1371       C  0.08158676  0.50768292  0.63588547     0.15800
C1372       C  0.07396068  0.49570892  0.60806661    -0.18700
C1373       C  0.07893835  0.49032055  0.66167223    -0.20500
C1374       C  0.08410340  0.50312895  0.68939792    -0.13100
C1375       C  0.09212562  0.53366340  0.69214355     0.03600
C1376       C  0.09562491  0.55082116  0.66610735    -0.25200
H1377       H  0.08283545  0.55895166  0.56631244     0.08700
H1378       H  0.09869779  0.57927950  0.61386762     0.12300
H1379       H  0.06531508  0.47293509  0.60665700     0.12200
H1380       H  0.07226442  0.46689850  0.66045358     0.12000
H1381       H  0.08178463  0.48902841  0.70874517     0.12500
H1382       H  0.10130623  0.57448555  0.66752257     0.14500
C1383       C  0.95559093  0.43387275  0.70238328    -0.05500
C1384       C  0.97973647  0.42108206  0.68874381    -0.05500
C1385       C  0.98947751  0.43175265  0.66146977    -0.23600
C1386       C  0.97535257  0.45563931  0.64723916     0.18600
C1387       C  0.95125527  0.46916680  0.66072203     0.15800
C1388       C  0.94127352  0.45796403  0.68818102    -0.18700
C1389       C  0.93754742  0.49334462  0.64622942    -0.20500
C1390       C  0.94740083  0.50367616  0.61858150    -0.13100
C1391       C  0.97090688  0.48977031  0.60470718     0.03600
C1392       C  0.98484400  0.46588534  0.61955145    -0.25200
H1393       H  0.99061788  0.40217372  0.69892221     0.08700
H1394       H  0.00792747  0.42107454  0.65133160     0.12300
H1395       H  0.92230700  0.46766011  0.69833622     0.12200
H1396       H  0.91908267  0.50414852  0.65619436     0.12000
H1397       H  0.93625980  0.52205244  0.60779822     0.12500
H1398       H  0.00327844  0.45505362  0.60949539     0.14500
C1399       C  0.04309172  0.39092180  0.48491630    -0.05500
C1400       C  0.07265916  0.38608774  0.49205367    -0.05500
C1401       C  0.08159822  0.35870422  0.50388282    -0.23600
C1402       C  0.06098678  0.33580310  0.50942431     0.18600
C1403       C  0.03161883  0.33942171  0.50037480     0.15800
C1404       C  0.02286715  0.36684766  0.48754090    -0.18700
C1405       C  0.01121352  0.31632093  0.50626809    -0.20500
C1406       C  0.01896429  0.29159547  0.52381862    -0.13100
C1407       C  0.04770681  0.28894698  0.53478990     0.03600
C1408       C  0.06897055  0.31026060  0.52563278    -0.25200
H1409       H  0.08861654  0.40425036  0.49022771     0.08700
H1410       H  0.10427383  0.35619073  0.51048796     0.12300
H1411       H  0.99998633  0.37039127  0.48242620     0.12200
H1412       H  0.98905983  0.31803798  0.49834463     0.12000
H1413       H  0.00212293  0.27539026  0.52988379     0.12500
H1414       H  0.09157987  0.30792410  0.53253324     0.14500
C1415       C  0.94229491  0.41683186  0.49277924    -0.05500
C1416       C  0.92711067  0.41629704  0.46570254    -0.05500
C1417       C  0.91653293  0.38923347  0.45391286    -0.23600
C1418       C  0.92062683  0.36202288  0.46901002     0.18600
C1419       C  0.93319414  0.36240517  0.49745313     0.15800
C1420       C  0.94401139  0.38976888  0.50917903    -0.18700
C1421       C  0.93635983  0.33513451  0.51279161    -0.20500
C1422       C  0.92953847  0.30766022  0.49914673    -0.13100
C1423       C  0.91919603  0.30678801  0.46987835     0.03600
C1424       C  0.91380601  0.33441987  0.45544610    -0.25200
H1425       H  0.92546021  0.43646285  0.45239933     0.08700
H1426       H  0.90647311  0.38943171  0.43223818     0.12300
H1427       H  0.95571155  0.38957304  0.53003176     0.12200
H1428       H  0.94546845  0.33491356  0.53488718     0.12000
H1429       H  0.93310117  0.28706909  0.51131643     0.12500
H1430       H  0.90586847  0.33464288  0.43292899     0.14500
C1431       C  0.93016610  0.67367715  0.55040597    -0.05500
C1432       C  0.93409552  0.65016108  0.57086448    -0.05500
C1433       C  0.93734178  0.62058464  0.56183193    -0.23600
C1434       C  0.93743514  0.61351390  0.53193196     0.18600
C1435       C  0.93433092  0.63665229  0.51074755     0.15800
C1436       C  0.93049922  0.66671980  0.52007913    -0.18700
C1437       C  0.93604693  0.62918828  0.48078809    -0.20500
C1438       C  0.94289288  0.59978645  0.47226436    -0.13100
C1439       C  0.94666374  0.57680477  0.49338155     0.03600
C1440       C  0.94236871  0.58382139  0.52311126    -0.25200
H1441       H  0.93452642  0.65468079  0.59423622     0.08700
H1442       H  0.94026431  0.60322442  0.57836387     0.12300
H1443       H  0.92758848  0.68446017  0.50394554     0.12200
H1444       H  0.93384441  0.64643068  0.46403282     0.12000
H1445       H  0.94679224  0.59535302  0.44926331     0.12500
H1446       H  0.94590600  0.56677737  0.53978002     0.14500
C1447       C  0.04281442  0.60253310  0.50176451    -0.05500
C1448       C  0.07237400  0.60862888  0.49533132    -0.05500
C1449       C  0.08107402  0.63608171  0.48292202    -0.23600
C1450       C  0.06029846  0.65789810  0.47608182     0.18600
C1451       C  0.03068578  0.65278718  0.48367173     0.15800
C1452       C  0.02217988  0.62527618  0.49695858    -0.18700
C1453       C  0.00997240  0.67462268  0.47631295    -0.20500
C1454       C  0.01823138  0.70045400  0.46041268    -0.13100
C1455       C  0.04744284  0.70513317  0.45167304     0.03600
C1456       C  0.06849138  0.68406279  0.46054237    -0.25200
H1457       H  0.08861731  0.59144004  0.49854180     0.08700
H1458       H  0.10388907  0.63963809  0.47732189     0.12300
H1459       H  0.99925079  0.62067747  0.50129973     0.12200
H1460       H  0.98716095  0.67127563  0.48198740     0.12000
H1461       H  0.00151465  0.71617797  0.45394329     0.12500
H1462       H  0.09123512  0.68759726  0.45463497     0.14500
C1463       C  0.43146053  0.06856231  0.70749224    -0.05500
C1464       C  0.43081053  0.03726844  0.70387664    -0.05500
C1465       C  0.43940257  0.02444001  0.67738465    -0.23600
C1466       C  0.44890438  0.04262370  0.65387995     0.18600
C1467       C  0.45055509  0.07402286  0.65732955     0.15800
C1468       C  0.44184702  0.08679595  0.68407689    -0.18700
C1469       C  0.46058787  0.09205404  0.63382237    -0.20500
C1470       C  0.46843072  0.07909492  0.60700154    -0.13100
C1471       C  0.46600944  0.04793022  0.60306669     0.03600
C1472       C  0.45647825  0.02986725  0.62688960    -0.25200
H1473       H  0.42272663  0.02267879  0.72124103     0.08700
H1474       H  0.43816608  0.00028295  0.67512088     0.12300
H1475       H  0.44300480  0.11092844  0.68658625     0.12200
H1476       H  0.46216137  0.11618336  0.63610710     0.12000
H1477       H  0.47583754  0.09348384  0.58917120     0.12500
H1478       H  0.45497282  0.00572157  0.62448231     0.14500
C1479       C  0.55741894  0.92601721  0.69046420    -0.05500
C1480       C  0.52728457  0.93170758  0.69281397    -0.05500
C1481       C  0.50971160  0.93532348  0.66767432    -0.23600
C1482       C  0.52178346  0.93316323  0.63955292     0.18600
C1483       C  0.55148719  0.92545505  0.63676200     0.15800
C1484       C  0.56902918  0.92193114  0.66210324    -0.18700
C1485       C  0.56370482  0.92357720  0.60863531    -0.20500
C1486       C  0.54750547  0.93213215  0.58377454    -0.13100
C1487       C  0.51861621  0.94182333  0.58654770     0.03600
C1488       C  0.50538973  0.94091991  0.61432993    -0.25200
H1489       H  0.51724846  0.93387401  0.71412040     0.08700
H1490       H  0.48686313  0.94085245  0.67025642     0.12300
H1491       H  0.59216101  0.91786709  0.65945733     0.12200
H1492       H  0.58641946  0.91753690  0.60604076     0.12000
H1493       H  0.55825916  0.93347118  0.56266547     0.12500
H1494       H  0.48337070  0.94929364  0.61667335     0.14500
C1495       C  0.38995777  0.05019680  0.50534592    -0.05500
C1496       C  0.38819028  0.07977725  0.49447235    -0.05500
C1497       C  0.36207563  0.09049870  0.48208110    -0.23600
C1498       C  0.33732881  0.07156503  0.47935787     0.18600
C1499       C  0.33840379  0.04226326  0.49124493     0.15800
C1500       C  0.36438767  0.03201554  0.50479739    -0.18700
C1501       C  0.31399047  0.02312602  0.48793959    -0.20500
C1502       C  0.28938261  0.03216473  0.47174554    -0.13100
C1503       C  0.28791685  0.06116785  0.45920919     0.03600
C1504       C  0.31200917  0.08102055  0.46398341    -0.25200
H1505       H  0.40749989  0.09419639  0.49425427     0.08700
H1506       H  0.36173810  0.11312575  0.47321880     0.12300
H1507       H  0.36538297  0.00903868  0.51262082     0.12200
H1508       H  0.31424749  0.00079344  0.49726929     0.12000
H1509       H  0.27182837  0.01592613  0.46848623     0.12500
H1510       H  0.31142437  0.10373786  0.45542998     0.14500
C1511       C  0.29169663  0.92373913  0.53826209    -0.05500
C1512       C  0.28902267  0.93363741  0.50879719    -0.05500
C1513       C  0.31383659  0.94141424  0.49219193    -0.23600
C1514       C  0.34202217  0.93960160  0.50460425     0.18600
C1515       C  0.34500475  0.92819321  0.53355297     0.15800
C1516       C  0.32007447  0.92068231  0.55015762    -0.18700
C1517       C  0.37293206  0.92504861  0.54586513    -0.20500
C1518       C  0.39763974  0.93424475  0.53028589    -0.13100
C1519       C  0.39523169  0.94761692  0.50219697     0.03600
C1520       C  0.36717086  0.94974659  0.48913530    -0.25200
H1521       H  0.26767934  0.93549541  0.49845263     0.08700
H1522       H  0.31091095  0.94951421  0.46986112     0.12300
H1523       H  0.32290145  0.91339555  0.57275743     0.12200
H1524       H  0.37568433  0.91605825  0.56789965     0.12000
H1525       H  0.41873811  0.93237128  0.54117686     0.12500
H1526       H  0.36485392  0.96001540  0.46758474     0.14500
C1527       C  0.52741920  0.06315115  0.30665361    -0.05500
C1528       C  0.50861535  0.03770046  0.30602720    -0.05500
C1529       C  0.48782773  0.03268943  0.32796180    -0.23600
C1530       C  0.48641484  0.05195144  0.35205972     0.18600
C1531       C  0.50465112  0.07778445  0.35293388     0.15800
C1532       C  0.52419146  0.08375402  0.32984224    -0.18700
C1533       C  0.50441416  0.09621296  0.37782178    -0.20500
C1534       C  0.48887953  0.08719095  0.40282472    -0.13100
C1535       C  0.47204140  0.06057900  0.40272305     0.03600
C1536       C  0.46903522  0.04437659  0.37644228    -0.25200
H1537       H  0.51031215  0.02093182  0.28910617     0.08700
H1538       H  0.47387172  0.01292428  0.32680477     0.12300
H1539       H  0.53736671  0.10410587  0.33061633     0.12200
H1540       H  0.51816253  0.11620243  0.37887580     0.12000
H1541       H  0.49168285  0.09984000  0.42293024     0.12500
H1542       H  0.45619180  0.02382635  0.37621168     0.14500
C1543       C  0.47951314  0.96703519  0.39541558    -0.05500
C1544       C  0.49866363  0.96181758  0.37207046    -0.05500
C1545       C  0.48754144  0.95366915  0.34421535    -0.23600
C1546       C  0.45709630  0.95200236  0.33900326     0.18600
C1547       C  0.43793958  0.95762574  0.36241279     0.15800
C1548       C  0.44918936  0.96412232  0.39037355    -0.18700
C1549       C  0.40768106  0.95762871  0.35747701    -0.20500
C1550       C  0.39623921  0.95167764  0.32963798    -0.13100
C1551       C  0.41468117  0.94497121  0.30609173     0.03600
C1552       C  0.44532967  0.94543908  0.31088668    -0.25200
H1553       H  0.52208722  0.96435965  0.37526904     0.08700
H1554       H  0.50267904  0.94972658  0.32653410     0.12300
H1555       H  0.43403922  0.96880172  0.40789985     0.12200
H1556       H  0.39279152  0.96252584  0.37514891     0.12000
H1557       H  0.37273044  0.95237036  0.32654279     0.12500
H1558       H  0.45989057  0.94039702  0.29300082     0.14500
C1559       C  0.67495754  0.07158858  0.54714686    -0.05500
C1560       C  0.67279623  0.04347898  0.53306074    -0.05500
C1561       C  0.64869425  0.03577044  0.51528796    -0.23600
C1562       C  0.62516979  0.05520953  0.51187374     0.18600
C1563       C  0.62645031  0.08340962  0.52582188     0.15800
C1564       C  0.65142483  0.09163852  0.54299157    -0.18700
C1565       C  0.60221689  0.10233671  0.52314053    -0.20500
C1566       C  0.57640066  0.09244054  0.50885760    -0.13100
C1567       C  0.57451388  0.06387275  0.49588948     0.03600
C1568       C  0.59969138  0.04604074  0.49626105    -0.25200
H1569       H  0.68953094  0.02683378  0.53611180     0.08700
H1570       H  0.64806234  0.01410421  0.50479528     0.12300
H1571       H  0.65230406  0.11349522  0.55319748     0.12200
H1572       H  0.60262291  0.12415614  0.53347490     0.12000
H1573       H  0.55735639  0.10658922  0.50915329     0.12500
H1574       H  0.59858666  0.02384577  0.48671593     0.14500
C1575       C  0.57292344  0.95546163  0.48506975    -0.05500
C1576       C  0.56983257  0.93843807  0.45913813    -0.05500
C1577       C  0.59419688  0.92826437  0.44409860    -0.23600
C1578       C  0.62247895  0.93411843  0.45487533     0.18600
C1579       C  0.62609004  0.94884958  0.48208777     0.15800
C1580       C  0.60133391  0.95980016  0.49695091    -0.18700
C1581       C  0.65449494  0.95293145  0.49347266    -0.20500
C1582       C  0.67893931  0.94409406  0.47741294    -0.13100
C1583       C  0.67586053  0.93134620  0.44914745     0.03600
C1584       C  0.64711702  0.92598105  0.43845807    -0.25200
H1585       H  0.54845843  0.93432899  0.44929104     0.08700
H1586       H  0.59089085  0.91645042  0.42359156     0.12300
H1587       H  0.60427735  0.97261828  0.51691802     0.12200
H1588       H  0.65788705  0.96300816  0.51483561     0.12000
H1589       H  0.70028263  0.94734658  0.48746905     0.12500
H1590       H  0.64360861  0.91640038  0.41692719     0.14500
loop_ 
_geom_bond_atom_site_label_1 
_geom_bond_atom_site_label_2 
_geom_bond_distance 
_geom_bond_site_symmetry_2 
_ccdc_geom_bond_type 
O1            C9   1.263       .  A
O1          Co21   1.952   1_565  S
O2           C10   1.253       .  A
O2          Co22   1.958       .  S
O3           C11   1.265       .  A
O3          Co23   1.987   1_565  S
O4           C12   1.288       .  A
O4          Co24   2.066   1_565  S
O5           C11   1.268       .  A
O5          Co22   1.994       .  S
O6           C12   1.271       .  A
O6          Co21   1.937   1_565  S
O7           C10   1.266       .  A
O7          Co24   2.049   1_565  S
O8            C9   1.288       .  A
O8          Co23   2.080   1_565  S
C9         C1575   1.499       .  S
C10        C1519   1.494       .  S
C11        C1487   1.470       .  S
C12        C1543   1.484       .  S
O13          C26   1.291       .  A
O13         Co21   2.074       .  S
O14          C27   1.271       .  A
O14         Co22   1.998   1_545  S
O15          C28   1.256       .  A
O15         Co23   1.971       .  S
O16          C29   1.266       .  A
O16         Co24   1.961       .  S
O17          C29   1.287       .  A
O17         Co22   2.071   1_545  S
O18          C28   1.270       .  A
O18         Co21   2.047       .  S
O19          C26   1.271       .  A
O19         Co24   1.925       .  S
O20          C27   1.275       .  A
O20         Co23   2.003       .  S
Co21         O25   2.030       .  S
Co22         O25   2.029   1_565  S
Co23         O25   2.044       .  S
Co24         O25   2.047       .  S
C26        C1535   1.475       .  S
C27        C1471   1.491       .  S
C28        C1567   1.496       .  S
C29        C1495   1.494       .  S
O30          C38   1.271       .  A
O30         Co50   1.971       .  S
O31          C39   1.269       .  A
O31         Co51   1.967       .  S
O32          C40   1.300       .  A
O32         Co52   2.100   1_655  S
O33          C41   1.296       .  A
O33         Co53   2.077   1_655  S
O34          C40   1.279       .  A
O34         Co51   1.914       .  S
O35          C41   1.283       .  A
O35         Co50   1.934       .  S
O36          C39   1.276       .  A
O36         Co53   2.036   1_655  S
O37          C38   1.275       .  A
O37         Co52   2.030   1_655  S
C38        C1439   1.495       .  S
C39        C1415   1.498       .  S
C40        C1359   1.483       .  S
C41        C1391   1.498       .  S
O42          C55   1.258       .  A
O42         Co50   2.005   1_455  S
O43          C56   1.255       .  A
O43         Co51   2.003   1_455  S
O44          C57   1.263       .  A
O44         Co52   1.973       .  S
O45          C58   1.263       .  A
O45         Co53   1.972       .  S
O46          C58   1.275       .  A
O46         Co51   2.043   1_455  S
O47          C57   1.277       .  A
O47         Co50   2.045   1_455  S
O48          C55   1.262       .  A
O48         Co53   1.990       .  S
O49          C56   1.259       .  A
O49         Co52   1.986       .  S
Co50         O54   2.001   1_655  S
Co51         O54   1.989   1_655  S
Co52         O54   2.102       .  S
Co53         O54   2.097       .  S
C55        C1367   1.486       .  S
C56        C1343   1.480       .  S
C57        C1447   1.485       .  S
C58        C1399   1.482       .  S
O59          C67   1.269       .  A
O59         Co79   1.991   1_554  S
O60          C68   1.291       .  A
O60         Co80   2.082   1_554  S
O61          C69   1.262       .  A
O61         Co81   1.970       .  S
O62          C70   1.275       .  A
O62         Co82   1.985       .  S
O63          C69   1.268       .  A
O63         Co80   2.026   1_554  S
O64          C70   1.282       .  A
O64         Co79   2.048   1_554  S
O65          C68   1.273       .  A
O65         Co82   1.931       .  S
O66          C67   1.272       .  A
O66         Co81   2.003       .  S
C67        C1311   1.487       .  S
C68        C1247   1.497       .  S
C69        C1207   1.493       .  S
C70        C1279   1.500       .  S
O71          C84   1.263       .  A
O71         Co79   1.969       .  S
O72          C85   1.272       .  A
O72         Co80   1.983       .  S
O73          C86   1.269       .  A
O73         Co81   1.991   1_556  S
O74          C87   1.293       .  A
O74         Co82   2.088   1_556  S
O75          C87   1.271       .  A
O75         Co80   1.917       .  S
O76          C86   1.273       .  A
O76         Co79   2.001       .  S
O77          C84   1.268       .  A
O77         Co82   2.030   1_556  S
O78          C85   1.282       .  A
O78         Co81   2.046   1_556  S
Co79         O83   2.047   1_556  S
Co80         O83   2.039   1_556  S
Co81         O83   2.050       .  S
Co82         O83   2.043       .  S
C84        C1295   1.496       .  S
C85        C1223   1.498       .  S
C86        C1327   1.486       .  S
C87        C1263   1.490       .  S
C88        C1175   1.502       .  S
C88          C89   1.412       .  A
C88          C93   1.412       .  A
C89          C90   1.408       .  A
C89          H94   1.083       .  S
C90        C1191   1.493       .  S
C90          C91   1.404       .  A
C91          C92   1.406       .  A
C91          H95   1.082       .  S
C92        C1479   1.503       .  S
C92          C93   1.414       .  A
C93          H96   1.082       .  S
C97        C1159   1.492       .  S
C97          N98   1.365       .  A
C97         N102   1.365       .  A
N98          C99   1.361       .  A
C99        C1199   1.489       .  S
C99         N100   1.355       .  A
N100        C101   1.356       .  A
C101       C1143   1.488       .  S
C101        N102   1.362       .  A
C103       C1127   1.515       .  S
C103        C104   1.426       .  A
C103        C108   1.413       .  A
C104        C105   1.419       .  A
C104        H109   1.082       .  S
C105       C1431   1.505       .  S
C105        C106   1.408       .  A
C106        C107   1.402       .  A
C106        H110   1.083       .  S
C107       C1167   1.497       .  S
C107        C108   1.404       .  A
C108        H111   1.080       .  S
C112       C1119   1.486       .  S
C112        C113   1.410       .  A
C112        C117   1.403       .  A
C113        C114   1.411       .  A
C113        H118   1.083       .  S
C114       C1255   1.501       .  S
C114        C115   1.411       .  A
C115        C116   1.406       .  A
C115        H119   1.083       .  S
C116       C1151   1.485       .  S
C116        C117   1.400       .  A
C117        H120   1.084       .  S
C121       C1079   1.482       .  S
C121        N122   1.352       .  A
C121        N126   1.357       .  A
N122        C123   1.354       .  A
C123       C1063   1.478       .  S
C123        N124   1.359       .  A
N124        C125   1.362       .  A
C125       C1095   1.482       .  S
C125        N126   1.363       .  A
C127       C1319   1.491       .  S
C127        C128   1.401       .  A
C127        C132   1.414       .  A
C128        C129   1.398       .  A
C128        H133   1.083       .  S
C129       C1103   1.480       .  S
C129        C130   1.399       .  A
C130        C131   1.411       .  A
C130        H134   1.081       .  S
C131       C1055   1.505       .  S
C131        C132   1.415       .  A
C132        H135   1.081       .  S
C136       C1031   1.494       .  S
C136        C137   1.412       .  A
C136        C141   1.406       .  A
C137        C138   1.416       .  A
C137        H142   1.083       .  S
C138       C1463   1.498       .  S
C138        C139   1.406       .  A
C139        C140   1.405       .  A
C139        H143   1.082       .  S
C140       C1087   1.491       .  S
C140        C141   1.403       .  A
C141        H144   1.083       .  S
C145       C1015   1.496       .  S
C145        C146   1.416       .  A
C145        C150   1.404       .  A
C146        C147   1.414       .  A
C146        H151   1.083       .  S
C147       C1407   1.497       .  S
C147        C148   1.407       .  A
C148        C149   1.397       .  A
C148        H152   1.082       .  S
C149       C1071   1.484       .  S
C149        C150   1.402       .  A
C150        H153   1.083       .  S
O154        C162   1.295       .  A
O154       Co174   2.071       .  S
O155        C163   1.297   1_545  A
O155       Co175   2.079       .  S
O156        C164   1.264   1_556  A
O156       Co176   1.964       .  S
O157        C165   1.262   1_554  A
O157       Co177   1.962       .  S
O158        C164   1.271       .  A
O158       Co175   2.020       .  S
O159        C165   1.276       .  A
O159       Co174   2.048       .  S
O160        C163   1.275       .  A
O160       Co177   1.907       .  S
O161        C162   1.279   1_545  A
O161       Co176   1.927       .  S
C162       C1183   1.486       .  S
C163        C951   1.475       .  S
C164        C999   1.495       .  S
C165        C919   1.501   1_556  S
O166        C179   1.262   1_556  A
O166       Co174   1.977       .  S
O167        C180   1.262   1_554  A
O167       Co175   1.968       .  S
O168        C181   1.255       .  A
O168       Co176   1.976       .  S
O169        C182   1.256       .  A
O169       Co177   1.993       .  S
O170        C182   1.256   1_545  A
O170       Co175   1.982       .  S
O171        C181   1.262   1_565  A
O171       Co174   1.995       .  S
O172        C179   1.274       .  A
O172       Co177   2.039       .  S
O173        C180   1.277       .  A
O173       Co176   2.057       .  S
Co174       O178   2.113   1_556  S
Co175       O178   2.110   1_545  S
Co176       O178   2.010   1_546  S
Co177       O178   1.995       .  S
C179        C943   1.488       .  S
C180        C991   1.492   1_556  S
C181       C1039   1.487       .  S
C182        C967   1.480       .  S
C183        C903   1.501       .  S
C183        N184   1.369       .  A
C183        N188   1.363       .  A
N184        C185   1.369       .  A
C185        C887   1.504       .  S
C185        N186   1.362       .  A
N186        C187   1.361       .  A
C187        C871   1.493       .  S
C187        N188   1.359       .  A
C189       C1287   1.499       .  S
C189        C190   1.412       .  A
C189        C194   1.413       .  A
C190        C191   1.403       .  A
C190        H195   1.084       .  S
C191        C911   1.498       .  S
C191        C192   1.405       .  A
C192        C193   1.414       .  A
C192        H196   1.082       .  S
C193        C935   1.505       .  S
C193        C194   1.417       .  A
C194        H197   1.082       .  S
C198        C863   1.515       .  S
C198        C199   1.417       .  A
C198        C203   1.413       .  A
C199        C200   1.416       .  A
C199        H204   1.082       .  S
C200        C895   1.507       .  S
C200        C201   1.409       .  A
C201        C202   1.413       .  A
C201        H205   1.083       .  S
C202       C1511   1.506       .  S
C202        C203   1.411       .  A
C203        H206   1.080       .  S
C207        C839   1.503       .  S
C207        C208   1.415       .  A
C207        C212   1.410       .  A
C208        C209   1.413       .  A
C208        H213   1.082       .  S
C209       C1375   1.507       .  S
C209        C210   1.408       .  A
C210        C211   1.409       .  A
C210        H214   1.082       .  S
C211        C879   1.497       .  S
C211        C212   1.410       .  A
C212        H215   1.083       .  S
C216        C807   1.489       .  S
C216        N217   1.355       .  A
C216        N221   1.360       .  A
N217        C218   1.355       .  A
C218        C799   1.487       .  S
C218        N219   1.360       .  A
N219        C220   1.365       .  A
C220        C823   1.488       .  S
C220        N221   1.367       .  A
C222       C1423   1.508       .  S
C222        C223   1.403       .  A
C222        C227   1.416       .  A
C223        C224   1.404       .  A
C223        H228   1.082       .  S
C224        C831   1.493       .  S
C224        C225   1.408       .  A
C225        C226   1.416       .  A
C225        H229   1.080       .  S
C226        C775   1.518       .  S
C226        C227   1.423       .  A
C227        H230   1.081       .  S
C231        C759   1.516       .  S
C231        C232   1.422       .  A
C231        C236   1.413       .  A
C232        C233   1.412       .  A
C232        H237   1.080       .  S
C233       C1239   1.503       .  S
C233        C234   1.408       .  A
C234        C235   1.408       .  A
C234        H238   1.083       .  S
C235        C815   1.500       .  S
C235        C236   1.407       .  A
C236        H239   1.080       .  S
C240        C959   1.483       .  S
C240        C241   1.404       .  A
C240        C245   1.399       .  A
C241        C242   1.415       .  A
C241        H246   1.082       .  S
C242       C1527   1.505       .  S
C242        C243   1.417       .  A
C243        C244   1.406       .  A
C243        H247   1.080       .  S
C244        C791   1.487       .  S
C244        C245   1.400       .  A
C245        H248   1.084       .  S
O249        C257   1.267       .  A
O249       Co269   1.977       .  S
O250        C258   1.289   1_554  A
O250       Co270   2.067       .  S
O251        C259   1.264       .  A
O251       Co271   1.971   1_455  S
O252        C260   1.273       .  A
O252       Co272   1.974       .  S
O253        C259   1.271       .  A
O253       Co270   2.043       .  S
O254        C260   1.285   1_655  A
O254       Co269   2.056       .  S
O255        C258   1.273       .  A
O255       Co272   1.945       .  S
O256        C257   1.273       .  A
O256       Co271   1.999   1_556  S
C257       C1111   1.482       .  S
C258        C751   1.494       .  S
C259        C719   1.503       .  S
C260        C847   1.489       .  S
O261        C274   1.263       .  A
O261       Co269   1.970   1_455  S
O262        C275   1.266       .  A
O262       Co270   1.962       .  S
O263        C276   1.265       .  A
O263       Co271   1.989       .  S
O264        C277   1.287   1_556  A
O264       Co272   2.066       .  S
O265        C277   1.273       .  A
O265       Co270   1.935       .  S
O266        C276   1.275   1_556  A
O266       Co269   2.010       .  S
O267        C274   1.267       .  A
O267       Co272   2.035       .  S
O268        C275   1.282   1_655  A
O268       Co271   2.054       .  S
Co269       O273   2.044   1_655  S
Co270       O273   2.039   1_554  S
Co271       O273   2.054   1_654  S
Co272       O273   2.043       .  S
C274        C703   1.498       .  S
C275        C727   1.490       .  S
C276        C767   1.478       .  S
C277       C1047   1.484       .  S
C278        C663   1.506       .  S
C278        C279   1.412       .  A
C278        C283   1.407       .  A
C279        C280   1.421       .  A
C279        H284   1.081       .  S
C280       C1503   1.512       .  S
C280        C281   1.418       .  A
C281        C282   1.408       .  A
C281        H285   1.081       .  S
C282        C687   1.497       .  S
C282        C283   1.402       .  A
C283        H286   1.083       .  S
C287        C679   1.498       .  S
C287        N288   1.362       .  A
C287        N292   1.365       .  A
N288        C289   1.361       .  A
C289        C655   1.495       .  S
C289        N290   1.361       .  A
N290        C291   1.364       .  A
C291        C631   1.499       .  S
C291        N292   1.365       .  A
C293        C735   1.514       .  S
C293        C294   1.415       .  A
C293        C298   1.414       .  A
C294        C295   1.414       .  A
C294        H299   1.081       .  S
C295       C1335   1.503       .  S
C295        C296   1.408       .  A
C296        C297   1.409       .  A
C296        H300   1.082       .  S
C297        C647   1.500       .  S
C297        C298   1.409       .  A
C298        H301   1.080       .  S
C302        C983   1.502       .  S
C302        C303   1.416       .  A
C302        C307   1.411       .  A
C303        C304   1.423       .  A
C303        H308   1.081       .  S
C304       C1215   1.517       .  S
C304        C305   1.418       .  A
C305        C306   1.404       .  A
C305        H309   1.081       .  S
C306        C639   1.501       .  S
C306        C307   1.403       .  A
C307        H310   1.084       .  S
C311        C615   1.494       .  S
C311        N312   1.354       .  A
C311        N316   1.360       .  A
N312        C313   1.358       .  A
C313        C599   1.494       .  S
C313        N314   1.368       .  A
N314        C315   1.370       .  A
C315        C583   1.503       .  S
C315        N316   1.367       .  A
C317       C1383   1.492       .  S
C317        C318   1.417       .  A
C317        C322   1.405       .  A
C318        C319   1.417       .  A
C318        H323   1.083       .  S
C319        C695   1.508       .  S
C319        C320   1.413       .  A
C320        C321   1.407       .  A
C320        H324   1.083       .  S
C321        C623   1.499       .  S
C321        C322   1.408       .  A
C322        H325   1.084       .  S
C326       C1231   1.522       .  S
C326        C327   1.421       .  A
C326        C331   1.413       .  A
C327        C328   1.419       .  A
C327        H332   1.076       .  S
C328       C1007   1.522       .  S
C328        C329   1.411       .  A
C329        C330   1.405       .  A
C329        H333   1.079       .  S
C330        C607   1.495       .  S
C330        C331   1.408       .  A
C331        H334   1.079       .  S
C335       C1559   1.520       .  S
C335        C336   1.416       .  A
C335        C340   1.418       .  A
C336        C337   1.411       .  A
C336        H341   1.081       .  S
C337        C575   1.508       .  S
C337        C338   1.407       .  A
C338        C339   1.412       .  A
C338        H342   1.083       .  S
C339        C591   1.507       .  S
C339        C340   1.419       .  A
C340        H343   1.081       .  S
C344        C527   1.495       .  S
C344        N345   1.361       .  A
C344        N349   1.368       .  A
N345        C346   1.357       .  A
C346        C535   1.492       .  S
C346        N347   1.357       .  A
N347        C348   1.362       .  A
C348        C559   1.496       .  S
C348        N349   1.367       .  A
C350       C1583   1.515       .  S
C350        C351   1.418       .  A
C350        C355   1.419       .  A
C351        C352   1.411       .  A
C351        H356   1.079       .  S
C352        C503   1.499       .  S
C352        C353   1.401       .  A
C353        C354   1.403       .  A
C353        H357   1.083       .  S
C354        C551   1.496       .  S
C354        C355   1.411       .  A
C355        H358   1.081       .  S
C359        C711   1.508       .  S
C359        C360   1.408       .  A
C359        C364   1.419       .  A
C360        C361   1.401       .  A
C360        H365   1.084       .  S
C361        C543   1.494       .  S
C361        C362   1.402       .  A
C362        C363   1.416       .  A
C362        H366   1.080       .  S
C363       C1351   1.519       .  S
C363        C364   1.428       .  A
C364        H367   1.081       .  S
C368        C927   1.513       .  S
C368        C369   1.416       .  A
C368        C373   1.404       .  A
C369        C370   1.425       .  A
C369        H374   1.075       .  S
C370       C1271   1.534       .  S
C370        C371   1.422       .  A
C371        C372   1.411       .  A
C371        H375   1.079       .  S
C372        C519   1.495       .  S
C372        C373   1.405       .  A
C373        H376   1.082       .  S
C377        C471   1.492       .  S
C377        N378   1.358       .  A
C377        N382   1.367       .  A
N378        C379   1.353       .  A
C379        C487   1.483       .  S
C379        N380   1.356       .  A
N380        C381   1.360       .  A
C381        C463   1.494       .  S
C381        N382   1.369       .  A
C383       C1551   1.493       .  S
C383        C384   1.407       .  A
C383        C388   1.408       .  A
C384        C385   1.400       .  A
C384        H389   1.083       .  S
C385        C495   1.477       .  S
C385        C386   1.401       .  A
C386        C387   1.404       .  A
C386        H390   1.084       .  S
C387        C975   1.486       .  S
C387        C388   1.412       .  A
C388        H391   1.083       .  S
C392       C1455   1.497       .  S
C392        C393   1.410       .  A
C392        C397   1.409       .  A
C393        C394   1.409       .  A
C393        H398   1.081       .  S
C394        C479   1.503       .  S
C394        C395   1.411       .  A
C395        C396   1.408       .  A
C395        H399   1.082       .  S
C396        C447   1.491       .  S
C396        C397   1.408       .  A
C397        H400   1.084       .  S
C401       C1303   1.501       .  S
C401        C402   1.412       .  A
C401        C406   1.415       .  A
C402        C403   1.411       .  A
C402        H407   1.082       .  S
C403        C455   1.495       .  S
C403        C404   1.406       .  A
C404        C405   1.408       .  A
C404        H408   1.084       .  S
C405        C743   1.497       .  S
C405        C406   1.405       .  A
C406        H409   1.083       .  S
O410        C418   1.266       .  A
O410       Co430   1.988       .  S
O411        C419   1.273       .  A
O411       Co431   1.968   1_655  S
O412        C420   1.288       .  A
O412       Co432   2.066       .  S
O413        C421   1.270       .  A
O413       Co433   2.000       .  S
O414        C420   1.276   1_545  A
O414       Co431   1.951       .  S
O415        C421   1.278   1_565  A
O415       Co430   2.010       .  S
O416        C419   1.283       .  A
O416       Co433   2.035       .  S
O417        C418   1.266   1_455  A
O417       Co432   2.017       .  S
C418       C1135   1.490       .  S
C419       C1023   1.483       .  S
C420        C855   1.498       .  S
C421        C567   1.484       .  S
O422        C435   1.264       .  A
O422       Co430   1.984       .  S
O423        C436   1.289   1_545  A
O423       Co431   2.077       .  S
O424        C437   1.268       .  A
O424       Co432   1.958   1_655  S
O425        C438   1.261       .  A
O425       Co433   1.975       .  S
O426        C438   1.270   1_455  A
O426       Co431   2.034       .  S
O427        C437   1.285       .  A
O427       Co430   2.054       .  S
O428        C435   1.270   1_545  A
O428       Co433   1.997       .  S
O429        C436   1.269       .  A
O429       Co432   1.930       .  S
Co430       O434   2.049       .  S
Co431       O434   2.055   1_445  S
Co432       O434   2.020   1_455  S
Co433       O434   2.031   1_545  S
C435        C511   1.469       .  S
C436        C671   1.488       .  S
C437        C439   1.485       .  S
C438        C783   1.495       .  S
C439        C440   1.405       .  A
C439        C444   1.410   1_655  A
C440        C441   1.404       .  A
C440        H449   1.083       .  S
C441        C442   1.406   1_655  A
C441        H450   1.082       .  S
C442        C448   1.411       .  A
C442        C443   1.412       .  A
C443        C445   1.403       .  A
C443        C444   1.404       .  A
C444        H451   1.082       .  S
C445        C446   1.398       .  A
C445        H452   1.082       .  S
C446        C447   1.406       .  A
C446        H453   1.085       .  S
C447        C448   1.411       .  A
C448        H454   1.082   1_455  S
C455        C456   1.406       .  A
C455        C460   1.412       .  A
C456        C457   1.400       .  A
C456        H465   1.083       .  S
C457        C458   1.404       .  A
C457        H466   1.083       .  S
C458        C464   1.407       .  A
C458        C459   1.411       .  A
C459        C461   1.405       .  A
C459        C460   1.411       .  A
C460        H467   1.082       .  S
C461        C462   1.403       .  A
C461        H468   1.082       .  S
C462        C463   1.406       .  A
C462        H469   1.083       .  S
C463        C464   1.413       .  A
C464        H470   1.083       .  S
C471        C472   1.410       .  A
C471        C476   1.410       .  A
C472        C473   1.394       .  A
C472        H481   1.083       .  S
C473        C474   1.398       .  A
C473        H482   1.084       .  S
C474        C480   1.406       .  A
C474        C475   1.413       .  A
C475        C477   1.402       .  A
C475        C476   1.413       .  A
C476        H483   1.084       .  S
C477        C478   1.403       .  A
C477        H484   1.083       .  S
C478        C479   1.412       .  A
C478        H485   1.082       .  S
C479        C480   1.409       .  A
C480        H486   1.082       .  S
C487        C488   1.406       .  A
C487        C492   1.410       .  A
C488        C489   1.395       .  A
C488        H497   1.082       .  S
C489        C490   1.400       .  A
C489        H498   1.085       .  S
C490        C496   1.400       .  A
C490        C491   1.414       .  A
C491        C493   1.404       .  A
C491        C492   1.405       .  A
C492        H499   1.085       .  S
C493        C494   1.399       .  A
C493        H500   1.084       .  S
C494        C495   1.405       .  A
C494        H501   1.083       .  S
C495        C496   1.402       .  A
C496        H502   1.086       .  S
C503        C504   1.408       .  A
C503        C508   1.413       .  A
C504        C505   1.401       .  A
C504        H513   1.082       .  S
C505        C506   1.403       .  A
C505        H514   1.084   1_565  S
C506        C512   1.408       .  A
C506        C507   1.413       .  A
C507        C509   1.404       .  A
C507        C508   1.406       .  A
C508        H515   1.084       .  S
C509        C510   1.399       .  A
C509        H516   1.084       .  S
C510        C511   1.403       .  A
C510        H517   1.083       .  S
C511        C512   1.406       .  A
C512        H518   1.085   1_565  S
C519        C520   1.407       .  A
C519        C524   1.408       .  A
C520        C521   1.399       .  A
C520        H529   1.083       .  S
C521        C522   1.401       .  A
C521        H530   1.084       .  S
C522        C528   1.411       .  A
C522        C523   1.416       .  A
C523        C525   1.401       .  A
C523        C524   1.413       .  A
C524        H531   1.084       .  S
C525        C526   1.400       .  A
C525        H532   1.084       .  S
C526        C527   1.411       .  A
C526        H533   1.082       .  S
C527        C528   1.408       .  A
C528        H534   1.085       .  S
C535        C536   1.409       .  A
C535        C540   1.409       .  A
C536        C537   1.402       .  A
C536        H545   1.082       .  S
C537        C538   1.403       .  A
C537        H546   1.085       .  S
C538        C544   1.411       .  A
C538        C539   1.414       .  A
C539        C541   1.401       .  A
C539        C540   1.406       .  A
C540        H547   1.085       .  S
C541        C542   1.397       .  A
C541        H548   1.085       .  S
C542        C543   1.407       .  A
C542        H549   1.083       .  S
C543        C544   1.410       .  A
C544        H550   1.085       .  S
C551        C552   1.408       .  A
C551        C556   1.407       .  A
C552        C553   1.407       .  A
C552        H561   1.083       .  S
C553        C554   1.407       .  A
C553        H562   1.084       .  S
C554        C560   1.416       .  A
C554        C555   1.413       .  A
C555        C557   1.398       .  A
C555        C556   1.403       .  A
C556        H563   1.085       .  S
C557        C558   1.394       .  A
C557        H564   1.084       .  S
C558        C559   1.409       .  A
C558        H565   1.083       .  S
C559        C560   1.414       .  A
C560        H566   1.084       .  S
C567        C568   1.405       .  A
C567        C572   1.408       .  A
C568        C569   1.404       .  A
C568        H577   1.083       .  S
C569        C570   1.406       .  A
C569        H578   1.083       .  S
C570        C576   1.415       .  A
C570        C571   1.413       .  A
C571        C573   1.403       .  A
C571        C572   1.414       .  A
C572        H579   1.084   1_545  S
C573        C574   1.402       .  A
C573        H580   1.083   1_545  S
C574        C575   1.410       .  A
C574        H581   1.083       .  S
C575        C576   1.415       .  A
C576        H582   1.083       .  S
C583        C584   1.410       .  A
C583        C588   1.415       .  A
C584        C585   1.399       .  A
C584        H593   1.083       .  S
C585        C586   1.401       .  A
C585        H594   1.083       .  S
C586        C592   1.411       .  A
C586        C587   1.412       .  A
C587        C589   1.407       .  A
C587        C588   1.418       .  A
C588        H595   1.083       .  S
C589        C590   1.407       .  A
C589        H596   1.082       .  S
C590        C591   1.409       .  A
C590        H597   1.083       .  S
C591        C592   1.412       .  A
C592        H598   1.083       .  S
C599        C600   1.411       .  A
C599        C604   1.409       .  A
C600        C601   1.396       .  A
C600        H609   1.082       .  S
C601        C602   1.398       .  A
C601        H610   1.084       .  S
C602        C608   1.408       .  A
C602        C603   1.415       .  A
C603        C605   1.402       .  A
C603        C604   1.414       .  A
C604        H611   1.084       .  S
C605        C606   1.401       .  A
C605        H612   1.084       .  S
C606        C607   1.409       .  A
C606        H613   1.083       .  S
C607        C608   1.406       .  A
C608        H614   1.084       .  S
C615        C616   1.410       .  A
C615        C620   1.409       .  A
C616        C617   1.399       .  A
C616        H625   1.084       .  S
C617        C618   1.402       .  A
C617        H626   1.083       .  S
C618        C624   1.410       .  A
C618        C619   1.414       .  A
C619        C621   1.402       .  A
C619        C620   1.411       .  A
C620        H627   1.084       .  S
C621        C622   1.400       .  A
C621        H628   1.084       .  S
C622        C623   1.408       .  A
C622        H629   1.082       .  S
C623        C624   1.411       .  A
C624        H630   1.084       .  S
C631        C632   1.409       .  A
C631        C636   1.413       .  A
C632        C633   1.400       .  A
C632        H641   1.082       .  S
C633        C634   1.402       .  A
C633        H642   1.084       .  S
C634        C640   1.411       .  A
C634        C635   1.414       .  A
C635        C637   1.405       .  A
C635        C636   1.415       .  A
C636        H643   1.084       .  S
C637        C638   1.404       .  A
C637        H644   1.084       .  S
C638        C639   1.408       .  A
C638        H645   1.082       .  S
C639        C640   1.410       .  A
C640        H646   1.085       .  S
C647        C648   1.410       .  A
C647        C652   1.410       .  A
C648        C649   1.403       .  A
C648        H657   1.082       .  S
C649        C650   1.404       .  A
C649        H658   1.084       .  S
C650        C656   1.412       .  A
C650        C651   1.413       .  A
C651        C653   1.402       .  A
C651        C652   1.408       .  A
C652        H659   1.084       .  S
C653        C654   1.399       .  A
C653        H660   1.084       .  S
C654        C655   1.408       .  A
C654        H661   1.082       .  S
C655        C656   1.413       .  A
C656        H662   1.084       .  S
C663        C664   1.411       .  A
C663        C668   1.416       .  A
C664        C665   1.394       .  A
C664        H673   1.081       .  S
C665        C666   1.397       .  A
C665        H674   1.084       .  S
C666        C672   1.404       .  A
C666        C667   1.413       .  A
C667        C669   1.407   1_545  A
C667        C668   1.416       .  A
C668        H675   1.083       .  S
C669        C670   1.406       .  A
C669        H676   1.083       .  S
C670        C671   1.408       .  A
C670        H677   1.083       .  S
C671        C672   1.406   1_565  A
C672        H678   1.085       .  S
C679        C680   1.409       .  A
C679        C684   1.411       .  A
C680        C681   1.404       .  A
C680        H689   1.082       .  S
C681        C682   1.404       .  A
C681        H690   1.084       .  S
C682        C688   1.414       .  A
C682        C683   1.414       .  A
C683        C685   1.401       .  A
C683        C684   1.409       .  A
C684        H691   1.085       .  S
C685        C686   1.397       .  A
C685        H692   1.084       .  S
C686        C687   1.409       .  A
C686        H693   1.083       .  S
C687        C688   1.410       .  A
C688        H694   1.084       .  S
C695        C696   1.409       .  A
C695        C700   1.418       .  A
C696        C697   1.396       .  A
C696        H705   1.083       .  S
C697        C698   1.400       .  A
C697        H706   1.084       .  S
C698        C704   1.409       .  A
C698        C699   1.413   1_655  A
C699        C701   1.410       .  A
C699        C700   1.423   1_455  A
C700        H707   1.084   1_655  S
C701        C702   1.412       .  A
C701        H708   1.084       .  S
C702        C703   1.408       .  A
C702        H709   1.083       .  S
C703        C704   1.409   1_455  A
C704        H710   1.085       .  S
C711        C712   1.408       .  A
C711        C716   1.418       .  A
C712        C713   1.396       .  A
C712        H721   1.082       .  S
C713        C714   1.400       .  A
C713        H722   1.085       .  S
C714        C720   1.411       .  A
C714        C715   1.414       .  A
C715        C717   1.410   1_655  A
C715        C716   1.426       .  A
C716        H723   1.085   1_655  S
C717        C718   1.413       .  A
C717        H724   1.084       .  S
C718        C719   1.409       .  A
C718        H725   1.082       .  S
C719        C720   1.410   1_455  A
C720        H726   1.086       .  S
C727        C728   1.406       .  A
C727        C732   1.413       .  A
C728        C729   1.400       .  A
C728        H737   1.084       .  S
C729        C730   1.404       .  A
C729        H738   1.083       .  S
C730        C736   1.409       .  A
C730        C731   1.411       .  A
C731        C733   1.403       .  A
C731        C732   1.412       .  A
C732        H739   1.084       .  S
C733        C734   1.403       .  A
C733        H740   1.083       .  S
C734        C735   1.413       .  A
C734        H741   1.081       .  S
C735        C736   1.416       .  A
C736        H742   1.081       .  S
C743        C744   1.405       .  A
C743        C748   1.417       .  A
C744        C745   1.394       .  A
C744        H753   1.083       .  S
C745        C746   1.400       .  A
C745        H754   1.084       .  S
C746        C752   1.402       .  A
C746        C747   1.411       .  A
C747        C749   1.410   1_554  A
C747        C748   1.417       .  A
C748        H755   1.084       .  S
C749        C750   1.411       .  A
C749        H756   1.084       .  S
C750        C751   1.407       .  A
C750        H757   1.082       .  S
C751        C752   1.409   1_556  A
C752        H758   1.085       .  S
C759        C760   1.412       .  A
C759        C764   1.419       .  A
C760        C761   1.403       .  A
C760        H769   1.081       .  S
C761        C762   1.403       .  A
C761        H770   1.083   1_554  S
C762        C768   1.412       .  A
C762        C763   1.411       .  A
C763        C765   1.406       .  A
C763        C764   1.412       .  A
C764        H771   1.081       .  S
C765        C766   1.402       .  A
C765        H772   1.083       .  S
C766        C767   1.403       .  A
C766        H773   1.084       .  S
C767        C768   1.410       .  A
C768        H774   1.084   1_554  S
C775        C776   1.412       .  A
C775        C780   1.421       .  A
C776        C777   1.400       .  A
C776        H785   1.081       .  S
C777        C778   1.400       .  A
C777        H786   1.080       .  S
C778        C784   1.413       .  A
C778        C779   1.411       .  A
C779        C781   1.407       .  A
C779        C780   1.417       .  A
C780        H787   1.082       .  S
C781        C782   1.406       .  A
C781        H788   1.083       .  S
C782        C783   1.408       .  A
C782        H789   1.083       .  S
C783        C784   1.410       .  A
C784        H790   1.084   1_655  S
C791        C792   1.406       .  A
C791        C796   1.405       .  A
C792        C793   1.403       .  A
C792        H801   1.082       .  S
C793        C794   1.405       .  A
C793        H802   1.084       .  S
C794        C800   1.411       .  A
C794        C795   1.414       .  A
C795        C797   1.398       .  A
C795        C796   1.400       .  A
C796        H803   1.085       .  S
C797        C798   1.392       .  A
C797        H804   1.085       .  S
C798        C799   1.409       .  A
C798        H805   1.082       .  S
C799        C800   1.410       .  A
C800        H806   1.085       .  S
C807        C808   1.408       .  A
C807        C812   1.411       .  A
C808        C809   1.392       .  A
C808        H817   1.082       .  S
C809        C810   1.397       .  A
C809        H818   1.084       .  S
C810        C816   1.404       .  A
C810        C811   1.414       .  A
C811        C813   1.404       .  A
C811        C812   1.414       .  A
C812        H819   1.084       .  S
C813        C814   1.404       .  A
C813        H820   1.084       .  S
C814        C815   1.411       .  A
C814        H821   1.083       .  S
C815        C816   1.407       .  A
C816        H822   1.084       .  S
C823        C824   1.409       .  A
C823        C828   1.406       .  A
C824        C825   1.402       .  A
C824        H833   1.083       .  S
C825        C826   1.404       .  A
C825        H834   1.083       .  S
C826        C832   1.411       .  A
C826        C827   1.414       .  A
C827        C829   1.399       .  A
C827        C828   1.404       .  A
C828        H835   1.084       .  S
C829        C830   1.394       .  A
C829        H836   1.084       .  S
C830        C831   1.408       .  A
C830        H837   1.083       .  S
C831        C832   1.410       .  A
C832        H838   1.084       .  S
C839        C840   1.407       .  A
C839        C844   1.417       .  A
C840        C841   1.398       .  A
C840        H849   1.083       .  S
C841        C842   1.402       .  A
C841        H850   1.081       .  S
C842        C848   1.408       .  A
C842        C843   1.412       .  A
C843        C845   1.408       .  A
C843        C844   1.416       .  A
C844        H851   1.083       .  S
C845        C846   1.407       .  A
C845        H852   1.083       .  S
C846        C847   1.405       .  A
C846        H853   1.083       .  S
C847        C848   1.408       .  A
C848        H854   1.080       .  S
C855        C856   1.410       .  A
C855        C860   1.412       .  A
C856        C857   1.398       .  A
C856        H865   1.083       .  S
C857        C858   1.400       .  A
C857        H866   1.083       .  S
C858        C864   1.414       .  A
C858        C859   1.414       .  A
C859        C861   1.403       .  A
C859        C860   1.420       .  A
C860        H867   1.083   1_565  S
C861        C862   1.405       .  A
C861        H868   1.082   1_565  S
C862        C863   1.414       .  A
C862        H869   1.082       .  S
C863        C864   1.412       .  A
C864        H870   1.082       .  S
C871        C872   1.407       .  A
C871        C876   1.413       .  A
C872        C873   1.398       .  A
C872        H881   1.083       .  S
C873        C874   1.401       .  A
C873        H882   1.084       .  S
C874        C880   1.406       .  A
C874        C875   1.412       .  A
C875        C877   1.405       .  A
C875        C876   1.412       .  A
C876        H883   1.084       .  S
C877        C878   1.403       .  A
C877        H884   1.084       .  S
C878        C879   1.408       .  A
C878        H885   1.083       .  S
C879        C880   1.409       .  A
C880        H886   1.084       .  S
C887        C888   1.409       .  A
C887        C892   1.415       .  A
C888        C889   1.407       .  A
C888        H897   1.082       .  S
C889        C890   1.407       .  A
C889        H898   1.084       .  S
C890        C896   1.417       .  A
C890        C891   1.412       .  A
C891        C893   1.404       .  A
C891        C892   1.413       .  A
C892        H899   1.084       .  S
C893        C894   1.402       .  A
C893        H900   1.084       .  S
C894        C895   1.407       .  A
C894        H901   1.083       .  S
C895        C896   1.416       .  A
C896        H902   1.084       .  S
C903        C904   1.411       .  A
C903        C908   1.412       .  A
C904        C905   1.401       .  A
C904        H913   1.083       .  S
C905        C906   1.402       .  A
C905        H914   1.083       .  S
C906        C912   1.412       .  A
C906        C907   1.414       .  A
C907        C909   1.404       .  A
C907        C908   1.414       .  A
C908        H915   1.083       .  S
C909        C910   1.402       .  A
C909        H916   1.082       .  S
C910        C911   1.406       .  A
C910        H917   1.084       .  S
C911        C912   1.411       .  A
C912        H918   1.083       .  S
C919        C920   1.410       .  A
C919        C924   1.413   1_554  A
C920        C921   1.402       .  A
C920        H929   1.083       .  S
C921        C922   1.403       .  A
C921        H930   1.084       .  S
C922        C928   1.413       .  A
C922        C923   1.412       .  A
C923        C925   1.403   1_554  A
C923        C924   1.415   1_554  A
C924        H931   1.085       .  S
C925        C926   1.403   1_556  A
C925        H932   1.084       .  S
C926        C927   1.411       .  A
C926        H933   1.082       .  S
C927        C928   1.416       .  A
C928        H934   1.083       .  S
C935        C936   1.412       .  A
C935        C940   1.412       .  A
C936        C937   1.399       .  A
C936        H945   1.082       .  S
C937        C938   1.400       .  A
C937        H946   1.084       .  S
C938        C944   1.409       .  A
C938        C939   1.413       .  A
C939        C941   1.404       .  A
C939        C940   1.413       .  A
C940        H947   1.083       .  S
C941        C942   1.402   1_556  A
C941        H948   1.083       .  S
C942        C943   1.406       .  A
C942        H949   1.080       .  S
C943        C944   1.409   1_554  A
C944        H950   1.085       .  S
C951        C952   1.404       .  A
C951        C956   1.403   1_565  A
C952        C953   1.405       .  A
C952        H961   1.083       .  S
C953        C954   1.408   1_565  A
C953        H962   1.083       .  S
C954        C960   1.409       .  A
C954        C955   1.413       .  A
C955        C957   1.399       .  A
C955        C956   1.397       .  A
C956        H963   1.085       .  S
C957        C958   1.392       .  A
C957        H964   1.083       .  S
C958        C959   1.404       .  A
C958        H965   1.084       .  S
C959        C960   1.410       .  A
C960        H966   1.084       .  S
C967        C968   1.403       .  A
C967        C972   1.408       .  A
C968        C969   1.409       .  A
C968        H977   1.081       .  S
C969        C970   1.411       .  A
C969        H978   1.085       .  S
C970        C976   1.409       .  A
C970        C971   1.410       .  A
C971        C973   1.401       .  A
C971        C972   1.395       .  A
C972        H979   1.085       .  S
C973        C974   1.393       .  A
C973        H980   1.085       .  S
C974        C975   1.403       .  A
C974        H981   1.083       .  S
C975        C976   1.414       .  A
C976        H982   1.085       .  S
C983        C984   1.406       .  A
C983        C988   1.418       .  A
C984        C985   1.395       .  A
C984        H993   1.084       .  S
C985        C986   1.400       .  A
C985        H994   1.082       .  S
C986        C992   1.406       .  A
C986        C987   1.413       .  A
C987        C989   1.412   1_554  A
C987        C988   1.423       .  A
C988        H995   1.082       .  S
C989        C990   1.414       .  A
C989        H996   1.082       .  S
C990        C991   1.405   1_556  A
C990        H997   1.083       .  S
C991        C992   1.407       .  A
C992        H998   1.083       .  S
C999       C1000   1.406   1_554  A
C999       C1004   1.416       .  A
C1000      C1001   1.402       .  A
C1000      H1009   1.083       .  S
C1001      C1002   1.406       .  A
C1001      H1010   1.084       .  S
C1002      C1008   1.411       .  A
C1002      C1003   1.408       .  A
C1003      C1005   1.402   1_556  A
C1003      C1004   1.409   1_556  A
C1004      H1011   1.084       .  S
C1005      C1006   1.402   1_554  A
C1005      H1012   1.085       .  S
C1006      C1007   1.415       .  A
C1006      H1013   1.079       .  S
C1007      C1008   1.420       .  A
C1008      H1014   1.079       .  S
C1015      C1016   1.411       .  A
C1015      C1020   1.407       .  A
C1016      C1017   1.398       .  A
C1016      H1025   1.082       .  S
C1017      C1018   1.401       .  A
C1017      H1026   1.084       .  S
C1018      C1024   1.408       .  A
C1018      C1019   1.414       .  A
C1019      C1021   1.401   1_455  A
C1019      C1020   1.408       .  A
C1020      H1027   1.084   1_455  S
C1021      C1022   1.398       .  A
C1021      H1028   1.084       .  S
C1022      C1023   1.406       .  A
C1022      H1029   1.083       .  S
C1023      C1024   1.408   1_655  A
C1024      H1030   1.085       .  S
C1031      C1032   1.407       .  A
C1031      C1036   1.412       .  A
C1032      C1033   1.395       .  A
C1032      H1041   1.083       .  S
C1033      C1034   1.400       .  A
C1033      H1042   1.084       .  S
C1034      C1040   1.404       .  A
C1034      C1035   1.413       .  A
C1035      C1037   1.408   1_545  A
C1035      C1036   1.415       .  A
C1036      H1043   1.084       .  S
C1037      C1038   1.407       .  A
C1037      H1044   1.083       .  S
C1038      C1039   1.406   1_565  A
C1038      H1045   1.083       .  S
C1039      C1040   1.409       .  A
C1040      H1046   1.085       .  S
C1047      C1048   1.406       .  A
C1047      C1052   1.407   1_554  A
C1048      C1049   1.406       .  A
C1048      H1057   1.083       .  S
C1049      C1050   1.408   1_554  A
C1049      H1058   1.083       .  S
C1050      C1056   1.411       .  A
C1050      C1051   1.410       .  A
C1051      C1053   1.397       .  A
C1051      C1052   1.398       .  A
C1052      H1059   1.084       .  S
C1053      C1054   1.392       .  A
C1053      H1060   1.084       .  S
C1054      C1055   1.412       .  A
C1054      H1061   1.081       .  S
C1055      C1056   1.417       .  A
C1056      H1062   1.082       .  S
C1063      C1064   1.407       .  A
C1063      C1068   1.408       .  A
C1064      C1065   1.388       .  A
C1064      H1073   1.083       .  S
C1065      C1066   1.396       .  A
C1065      H1074   1.084       .  S
C1066      C1072   1.396       .  A
C1066      C1067   1.414       .  A
C1067      C1069   1.404       .  A
C1067      C1068   1.407       .  A
C1068      H1075   1.084       .  S
C1069      C1070   1.401       .  A
C1069      H1076   1.083       .  S
C1070      C1071   1.408       .  A
C1070      H1077   1.083       .  S
C1071      C1072   1.402       .  A
C1072      H1078   1.084       .  S
C1079      C1080   1.408       .  A
C1079      C1084   1.408       .  A
C1080      C1081   1.393       .  A
C1080      H1089   1.083       .  S
C1081      C1082   1.399       .  A
C1081      H1090   1.083       .  S
C1082      C1088   1.402       .  A
C1082      C1083   1.413       .  A
C1083      C1085   1.402       .  A
C1083      C1084   1.406       .  A
C1084      H1091   1.083       .  S
C1085      C1086   1.399       .  A
C1085      H1092   1.082       .  S
C1086      C1087   1.408       .  A
C1086      H1093   1.083       .  S
C1087      C1088   1.406       .  A
C1088      H1094   1.083       .  S
C1095      C1096   1.407       .  A
C1095      C1100   1.406       .  A
C1096      C1097   1.399       .  A
C1096      H1105   1.083       .  S
C1097      C1098   1.403       .  A
C1097      H1106   1.084       .  S
C1098      C1104   1.404       .  A
C1098      C1099   1.413       .  A
C1099      C1101   1.400       .  A
C1099      C1100   1.399       .  A
C1100      H1107   1.084       .  S
C1101      C1102   1.393       .  A
C1101      H1108   1.083       .  S
C1102      C1103   1.404       .  A
C1102      H1109   1.083       .  S
C1103      C1104   1.407       .  A
C1104      H1110   1.084       .  S
C1111      C1112   1.403       .  A
C1111      C1116   1.410       .  A
C1112      C1113   1.406       .  A
C1112      H1121   1.082       .  S
C1113      C1114   1.409       .  A
C1113      H1122   1.084       .  S
C1114      C1120   1.407       .  A
C1114      C1115   1.410       .  A
C1115      C1117   1.402       .  A
C1115      C1116   1.396       .  A
C1116      H1123   1.085       .  S
C1117      C1118   1.394       .  A
C1117      H1124   1.085       .  S
C1118      C1119   1.404       .  A
C1118      H1125   1.083       .  S
C1119      C1120   1.413       .  A
C1120      H1126   1.085       .  S
C1127      C1128   1.410       .  A
C1127      C1132   1.420       .  A
C1128      C1129   1.406       .  A
C1128      H1137   1.082       .  S
C1129      C1130   1.406       .  A
C1129      H1138   1.083       .  S
C1130      C1136   1.412       .  A
C1130      C1131   1.410       .  A
C1131      C1133   1.407       .  A
C1131      C1132   1.410       .  A
C1132      H1139   1.082       .  S
C1133      C1134   1.403       .  A
C1133      H1140   1.083       .  S
C1134      C1135   1.403       .  A
C1134      H1141   1.084       .  S
C1135      C1136   1.414       .  A
C1136      H1142   1.083       .  S
C1143      C1144   1.409       .  A
C1143      C1148   1.409       .  A
C1144      C1145   1.394       .  A
C1144      H1153   1.082       .  S
C1145      C1146   1.398       .  A
C1145      H1154   1.084       .  S
C1146      C1152   1.403       .  A
C1146      C1147   1.415       .  A
C1147      C1149   1.403       .  A
C1147      C1148   1.409       .  A
C1148      H1155   1.085       .  S
C1149      C1150   1.401       .  A
C1149      H1156   1.084       .  S
C1150      C1151   1.407       .  A
C1150      H1157   1.083       .  S
C1151      C1152   1.403       .  A
C1152      H1158   1.085       .  S
C1159      C1160   1.408       .  A
C1159      C1164   1.411       .  A
C1160      C1161   1.399       .  A
C1160      H1169   1.083       .  S
C1161      C1162   1.402       .  A
C1161      H1170   1.082       .  S
C1162      C1168   1.408       .  A
C1162      C1163   1.412       .  A
C1163      C1165   1.403       .  A
C1163      C1164   1.409       .  A
C1164      H1171   1.082       .  S
C1165      C1166   1.400       .  A
C1165      H1172   1.082       .  S
C1166      C1167   1.409       .  A
C1166      H1173   1.083       .  S
C1167      C1168   1.409       .  A
C1168      H1174   1.082       .  S
C1175      C1176   1.411       .  A
C1175      C1180   1.407       .  A
C1176      C1177   1.407   1_565  A
C1176      H1185   1.082   1_565  S
C1177      C1178   1.406   1_545  A
C1177      H1186   1.085       .  S
C1178      C1184   1.420   1_565  A
C1178      C1179   1.416       .  A
C1179      C1181   1.398       .  A
C1179      C1180   1.407       .  A
C1180      H1187   1.085       .  S
C1181      C1182   1.393       .  A
C1181      H1188   1.084       .  S
C1182      C1183   1.406       .  A
C1182      H1189   1.084       .  S
C1183      C1184   1.411   1_565  A
C1184      H1190   1.085       .  S
C1191      C1192   1.409       .  A
C1191      C1196   1.407       .  A
C1192      C1193   1.399       .  A
C1192      H1201   1.083       .  S
C1193      C1194   1.401       .  A
C1193      H1202   1.085       .  S
C1194      C1200   1.409       .  A
C1194      C1195   1.415       .  A
C1195      C1197   1.400       .  A
C1195      C1196   1.408       .  A
C1196      H1203   1.085       .  S
C1197      C1198   1.397       .  A
C1197      H1204   1.085       .  S
C1198      C1199   1.409       .  A
C1198      H1205   1.083       .  S
C1199      C1200   1.408       .  A
C1200      H1206   1.085       .  S
C1207      C1208   1.408       .  A
C1207      C1212   1.408       .  A
C1208      C1209   1.407       .  A
C1208      H1217   1.083       .  S
C1209      C1210   1.408       .  A
C1209      H1218   1.083       .  S
C1210      C1216   1.419       .  A
C1210      C1211   1.412       .  A
C1211      C1213   1.397       .  A
C1211      C1212   1.407       .  A
C1212      H1219   1.084       .  S
C1213      C1214   1.395       .  A
C1213      H1220   1.084       .  S
C1214      C1215   1.413       .  A
C1214      H1221   1.081       .  S
C1215      C1216   1.419       .  A
C1216      H1222   1.082       .  S
C1223      C1224   1.408       .  A
C1223      C1228   1.411       .  A
C1224      C1225   1.409       .  A
C1224      H1233   1.082       .  S
C1225      C1226   1.409       .  A
C1225      H1234   1.084       .  S
C1226      C1232   1.418       .  A
C1226      C1227   1.410       .  A
C1227      C1229   1.398       .  A
C1227      C1228   1.409       .  A
C1228      H1235   1.084       .  S
C1229      C1230   1.397       .  A
C1229      H1236   1.083       .  S
C1230      C1231   1.414       .  A
C1230      H1237   1.079       .  S
C1231      C1232   1.423       .  A
C1232      H1238   1.081       .  S
C1239      C1240   1.408       .  A
C1239      C1244   1.414       .  A
C1240      C1241   1.398       .  A
C1240      H1249   1.083       .  S
C1241      C1242   1.402       .  A
C1241      H1250   1.085       .  S
C1242      C1248   1.409       .  A
C1242      C1243   1.413       .  A
C1243      C1245   1.407       .  A
C1243      C1244   1.419       .  A
C1244      H1251   1.084       .  S
C1245      C1246   1.408       .  A
C1245      H1252   1.084       .  S
C1246      C1247   1.407       .  A
C1246      H1253   1.082       .  S
C1247      C1248   1.412       .  A
C1248      H1254   1.086       .  S
C1255      C1256   1.409       .  A
C1255      C1260   1.414       .  A
C1256      C1257   1.396       .  A
C1256      H1265   1.082       .  S
C1257      C1258   1.400       .  A
C1257      H1266   1.085       .  S
C1258      C1264   1.405       .  A
C1258      C1259   1.412       .  A
C1259      C1261   1.406       .  A
C1259      C1260   1.412       .  A
C1260      H1267   1.085       .  S
C1261      C1262   1.404       .  A
C1261      H1268   1.085       .  S
C1262      C1263   1.407       .  A
C1262      H1269   1.082       .  S
C1263      C1264   1.409       .  A
C1264      H1270   1.086       .  S
C1271      C1272   1.419       .  A
C1271      C1276   1.423       .  A
C1272      C1273   1.402       .  A
C1272      H1281   1.077       .  S
C1273      C1274   1.400       .  A
C1273      H1282   1.084       .  S
C1274      C1280   1.414       .  A
C1274      C1275   1.410       .  A
C1275      C1277   1.407       .  A
C1275      C1276   1.418       .  A
C1276      H1283   1.080       .  S
C1277      C1278   1.406       .  A
C1277      H1284   1.084       .  S
C1278      C1279   1.406       .  A
C1278      H1285   1.082       .  S
C1279      C1280   1.415       .  A
C1280      H1286   1.084       .  S
C1287      C1288   1.406       .  A
C1287      C1292   1.416       .  A
C1288      C1289   1.394       .  A
C1288      H1297   1.083       .  S
C1289      C1290   1.399       .  A
C1289      H1298   1.084       .  S
C1290      C1296   1.407       .  A
C1290      C1291   1.414       .  A
C1291      C1293   1.408       .  A
C1291      C1292   1.420       .  A
C1292      H1299   1.085       .  S
C1293      C1294   1.410       .  A
C1293      H1300   1.084       .  S
C1294      C1295   1.409       .  A
C1294      H1301   1.083       .  S
C1295      C1296   1.408       .  A
C1296      H1302   1.085       .  S
C1303      C1304   1.407       .  A
C1303      C1308   1.419       .  A
C1304      C1305   1.392       .  A
C1304      H1313   1.082       .  S
C1305      C1306   1.399       .  A
C1305      H1314   1.084       .  S
C1306      C1312   1.398       .  A
C1306      C1307   1.410       .  A
C1307      C1309   1.413       .  A
C1307      C1308   1.417       .  A
C1308      H1315   1.083       .  S
C1309      C1310   1.412       .  A
C1309      H1316   1.083       .  S
C1310      C1311   1.404       .  A
C1310      H1317   1.083       .  S
C1311      C1312   1.407       .  A
C1312      H1318   1.084       .  S
C1319      C1320   1.405       .  A
C1319      C1324   1.414       .  A
C1320      C1321   1.396       .  A
C1320      H1329   1.083       .  S
C1321      C1322   1.403       .  A
C1321      H1330   1.083       .  S
C1322      C1328   1.400       .  A
C1322      C1323   1.410       .  A
C1323      C1325   1.408       .  A
C1323      C1324   1.408       .  A
C1324      H1331   1.083       .  S
C1325      C1326   1.406       .  A
C1325      H1332   1.082       .  S
C1326      C1327   1.403       .  A
C1326      H1333   1.083       .  S
C1327      C1328   1.411       .  A
C1328      H1334   1.084       .  S
C1335      C1336   1.408       .  A
C1335      C1340   1.414       .  A
C1336      C1337   1.400       .  A
C1336      H1345   1.082       .  S
C1337      C1338   1.403       .  A
C1337      H1346   1.084       .  S
C1338      C1344   1.411       .  A
C1338      C1339   1.413       .  A
C1339      C1341   1.406       .  A
C1339      C1340   1.413       .  A
C1340      H1347   1.083       .  S
C1341      C1342   1.403       .  A
C1341      H1348   1.083       .  S
C1342      C1343   1.406       .  A
C1342      H1349   1.084       .  S
C1343      C1344   1.408       .  A
C1344      H1350   1.085       .  S
C1351      C1352   1.417       .  A
C1351      C1356   1.414       .  A
C1352      C1353   1.401       .  A
C1352      H1361   1.080       .  S
C1353      C1354   1.400       .  A
C1353      H1362   1.085       .  S
C1354      C1360   1.415       .  A
C1354      C1355   1.415       .  A
C1355      C1357   1.404       .  A
C1355      C1356   1.416       .  A
C1356      H1363   1.083       .  S
C1357      C1358   1.401       .  A
C1357      H1364   1.084   1_655  S
C1358      C1359   1.404       .  A
C1358      H1365   1.082   1_655  S
C1359      C1360   1.407       .  A
C1360      H1366   1.085       .  S
C1367      C1368   1.406       .  A
C1367      C1372   1.412       .  A
C1368      C1369   1.402       .  A
C1368      H1377   1.083       .  S
C1369      C1370   1.404       .  A
C1369      H1378   1.085       .  S
C1370      C1376   1.412       .  A
C1370      C1371   1.413       .  A
C1371      C1373   1.405       .  A
C1371      C1372   1.415       .  A
C1372      H1379   1.085       .  S
C1373      C1374   1.405       .  A
C1373      H1380   1.084       .  S
C1374      C1375   1.410       .  A
C1374      H1381   1.082       .  S
C1375      C1376   1.414       .  A
C1376      H1382   1.084       .  S
C1383      C1384   1.402       .  A
C1383      C1388   1.415       .  A
C1384      C1385   1.399       .  A
C1384      H1393   1.084       .  S
C1385      C1386   1.404       .  A
C1385      H1394   1.083   1_655  S
C1386      C1392   1.406       .  A
C1386      C1387   1.411       .  A
C1387      C1389   1.411       .  A
C1387      C1388   1.418       .  A
C1388      H1395   1.084       .  S
C1389      C1390   1.411       .  A
C1389      H1396   1.083       .  S
C1390      C1391   1.406       .  A
C1390      H1397   1.083       .  S
C1391      C1392   1.413       .  A
C1392      H1398   1.084   1_655  S
C1399      C1400   1.406       .  A
C1399      C1404   1.410       .  A
C1400      C1401   1.396       .  A
C1400      H1409   1.084       .  S
C1401      C1402   1.401       .  A
C1401      H1410   1.083       .  S
C1402      C1408   1.403       .  A
C1402      C1403   1.411       .  A
C1403      C1405   1.404       .  A
C1403      C1404   1.412       .  A
C1404      H1411   1.083   1_455  S
C1405      C1406   1.404       .  A
C1405      H1412   1.075   1_455  S
C1406      C1407   1.407       .  A
C1406      H1413   1.083       .  S
C1407      C1408   1.411       .  A
C1408      H1414   1.083       .  S
C1415      C1416   1.408       .  A
C1415      C1420   1.416       .  A
C1416      C1417   1.401       .  A
C1416      H1425   1.083       .  S
C1417      C1418   1.403       .  A
C1417      H1426   1.084       .  S
C1418      C1424   1.410       .  A
C1418      C1419   1.410       .  A
C1419      C1421   1.406       .  A
C1419      C1420   1.415       .  A
C1420      H1427   1.084       .  S
C1421      C1422   1.406       .  A
C1421      H1428   1.084       .  S
C1422      C1423   1.409       .  A
C1422      H1429   1.082       .  S
C1423      C1424   1.415       .  A
C1424      H1430   1.083       .  S
C1431      C1432   1.409       .  A
C1431      C1436   1.416       .  A
C1432      C1433   1.394       .  A
C1432      H1441   1.083       .  S
C1433      C1434   1.398       .  A
C1433      H1442   1.084       .  S
C1434      C1440   1.408       .  A
C1434      C1435   1.414       .  A
C1435      C1437   1.408       .  A
C1435      C1436   1.423       .  A
C1436      H1443   1.083       .  S
C1437      C1438   1.410       .  A
C1437      H1444   1.083       .  S
C1438      C1439   1.410       .  A
C1438      H1445   1.083       .  S
C1439      C1440   1.407       .  A
C1440      H1446   1.082       .  S
C1447      C1448   1.406       .  A
C1447      C1452   1.410       .  A
C1448      C1449   1.397       .  A
C1448      H1457   1.083       .  S
C1449      C1450   1.401       .  A
C1449      H1458   1.084       .  S
C1450      C1456   1.406       .  A
C1450      C1451   1.414       .  A
C1451      C1453   1.405       .  A
C1451      C1452   1.413       .  A
C1452      H1459   1.084   1_455  S
C1453      C1454   1.403       .  A
C1453      H1460   1.084   1_455  S
C1454      C1455   1.408       .  A
C1454      H1461   1.082       .  S
C1455      C1456   1.409       .  A
C1456      H1462   1.085       .  S
C1463      C1464   1.405       .  A
C1463      C1468   1.416       .  A
C1464      C1465   1.400       .  A
C1464      H1473   1.083       .  S
C1465      C1466   1.404       .  A
C1465      H1474   1.083       .  S
C1466      C1472   1.406       .  A
C1466      C1467   1.410       .  A
C1467      C1469   1.408       .  A
C1467      C1468   1.411       .  A
C1468      H1475   1.083       .  S
C1469      C1470   1.406       .  A
C1469      H1476   1.082       .  S
C1470      C1471   1.404       .  A
C1470      H1477   1.083       .  S
C1471      C1472   1.413       .  A
C1472      H1478   1.084       .  S
C1479      C1480   1.409       .  A
C1479      C1484   1.414       .  A
C1480      C1481   1.400       .  A
C1480      H1489   1.082       .  S
C1481      C1482   1.402       .  A
C1481      H1490   1.084       .  S
C1482      C1488   1.408       .  A
C1482      C1483   1.412       .  A
C1483      C1485   1.404       .  A
C1483      C1484   1.407       .  A
C1484      H1491   1.083       .  S
C1485      C1486   1.399       .  A
C1485      H1492   1.084       .  S
C1486      C1487   1.403       .  A
C1486      H1493   1.084       .  S
C1487      C1488   1.406       .  A
C1488      H1494   1.085       .  S
C1495      C1496   1.408       .  A
C1495      C1500   1.411       .  A
C1496      C1497   1.404       .  A
C1496      H1505   1.083       .  S
C1497      C1498   1.405       .  A
C1497      H1506   1.083       .  S
C1498      C1504   1.414       .  A
C1498      C1499   1.411       .  A
C1499      C1501   1.401       .  A
C1499      C1500   1.413       .  A
C1500      H1507   1.083       .  S
C1501      C1502   1.401       .  A
C1501      H1508   1.079       .  S
C1502      C1503   1.411       .  A
C1502      H1509   1.081       .  S
C1503      C1504   1.417       .  A
C1504      H1510   1.082       .  S
C1511      C1512   1.412       .  A
C1511      C1516   1.408       .  A
C1512      C1513   1.406       .  A
C1512      H1521   1.083       .  S
C1513      C1514   1.404       .  A
C1513      H1522   1.083       .  S
C1514      C1520   1.419       .  A
C1514      C1515   1.414       .  A
C1515      C1517   1.397       .  A
C1515      C1516   1.407       .  A
C1516      H1523   1.083       .  S
C1517      C1518   1.393       .  A
C1517      H1524   1.083       .  S
C1518      C1519   1.410       .  A
C1518      H1525   1.084       .  S
C1519      C1520   1.412       .  A
C1520      H1526   1.083       .  S
C1527      C1528   1.412       .  A
C1527      C1532   1.414       .  A
C1528      C1529   1.398       .  A
C1528      H1537   1.081       .  S
C1529      C1530   1.400       .  A
C1529      H1538   1.080       .  S
C1530      C1536   1.406       .  A
C1530      C1531   1.411       .  A
C1531      C1533   1.404       .  A
C1531      C1532   1.406       .  A
C1532      H1539   1.081       .  S
C1533      C1534   1.399       .  A
C1533      H1540   1.083       .  S
C1534      C1535   1.403       .  A
C1534      H1541   1.083       .  S
C1535      C1536   1.406       .  A
C1536      H1542   1.080       .  S
C1543      C1544   1.406       .  A
C1543      C1548   1.406       .  A
C1544      C1545   1.408       .  A
C1544      H1553   1.083       .  S
C1545      C1546   1.410       .  A
C1545      H1554   1.083       .  S
C1546      C1552   1.413       .  A
C1546      C1547   1.411       .  A
C1547      C1549   1.398       .  A
C1547      C1548   1.398       .  A
C1548      H1555   1.084       .  S
C1549      C1550   1.391       .  A
C1549      H1556   1.084       .  S
C1550      C1551   1.406       .  A
C1550      H1557   1.083       .  S
C1551      C1552   1.415       .  A
C1552      H1558   1.083       .  S
C1559      C1560   1.413       .  A
C1559      C1564   1.419       .  A
C1560      C1561   1.399       .  A
C1560      H1569   1.081       .  S
C1561      C1562   1.398       .  A
C1561      H1570   1.080       .  S
C1562      C1568   1.414       .  A
C1562      C1563   1.412       .  A
C1563      C1565   1.407       .  A
C1563      C1564   1.421       .  A
C1564      H1571   1.082       .  S
C1565      C1566   1.407       .  A
C1565      H1572   1.083       .  S
C1566      C1567   1.408       .  A
C1566      H1573   1.083       .  S
C1567      C1568   1.409       .  A
C1568      H1574   1.084       .  S
C1575      C1576   1.412       .  A
C1575      C1580   1.412       .  A
C1576      C1577   1.396       .  A
C1576      H1585   1.084       .  S
C1577      C1578   1.399       .  A
C1577      H1586   1.083       .  S
C1578      C1584   1.411       .  A
C1578      C1579   1.413       .  A
C1579      C1581   1.402       .  A
C1579      C1580   1.419       .  A
C1580      H1587   1.083       .  S
C1581      C1582   1.404       .  A
C1581      H1588   1.082       .  S
C1582      C1583   1.414       .  A
C1582      H1589   1.081       .  S
C1583      C1584   1.413       .  A
C1584      H1590   1.081       .  S
