geometry optimzed in LAMMPS
_audit_creation_date              2020-11-30 
_audit_creation_method            'lammps2cif' 
_symmetry_space_group_name_H-M    'P1' 
_symmetry_Int_Tables_number       1 
_symmetry_cell_setting            triclinic 
loop_ 
_symmetry_equiv_pos_as_xyz 
  x,y,z 
_cell_length_a                    34.56182480027301 
_cell_length_b                    34.992113527552405 
_cell_length_c                    34.708805033197024 
_cell_angle_alpha                 90.84052836796556 
_cell_angle_beta                  89.23781745724558 
_cell_angle_gamma                 91.21870502734151 
loop_ 
_atom_site_label 
_atom_site_type_symbol 
_atom_site_fract_x 
_atom_site_fract_y 
_atom_site_fract_z 
_atom_site_charge 
O1          O  0.22261159  0.44626364  0.99751651    -0.71380
O2          O  0.22177607  0.55404322  0.00329216    -0.71600
O3          O  0.22121590  0.50195489  0.94607788    -0.71460
O4          O  0.22457346  0.49725779  0.05547305    -0.71470
O5          O  0.28740604  0.50013072  0.05239122    -0.71430
O6          O  0.28387657  0.50362991  0.94313219    -0.71450
O7          O  0.28468687  0.55632753  0.00059005    -0.71390
O8          O  0.28534183  0.44797486  0.99490460    -0.71570
V9          V  0.22377812  0.50010422  0.00064032     1.35240
V10         V  0.28412823  0.50206287  0.99788624     1.35170
C11         C  0.25392906  0.42865051  0.99471040     0.77860
C12         C  0.25287487  0.57351451  0.00233500     0.77910
C13         C  0.25199100  0.50244486  0.92575943     0.77780
C14         C  0.25678871  0.49701012  0.07245890     0.77750
C15         C  0.23868845  0.49751114  0.75523458    -0.02090
O16         O  0.71750890  0.50063310  0.05678280    -0.71380
O17         O  0.70851053  0.49674573  0.94839384    -0.71600
O18         O  0.71407969  0.44395782  0.00359808    -0.71460
O19         O  0.71391238  0.55285862  0.00150777    -0.71470
O20         O  0.77658202  0.55364585  0.99662769    -0.71430
O21         O  0.77659956  0.44583622  0.99631976    -0.71450
O22         O  0.77121776  0.49857518  0.94205890    -0.71390
O23         O  0.78023107  0.50022436  0.05164436    -0.71570
V24         V  0.71472060  0.49850396  0.00245247     1.35240
V25         V  0.77494651  0.49960321  0.99680763     1.35170
C26         C  0.75003362  0.50107370  0.07279250     0.77860
C27         C  0.73809494  0.49719618  0.92683278     0.77910
C28         C  0.74568548  0.42643880  0.99974915     0.77780
C29         C  0.74549642  0.57180245  0.99880749     0.77750
C30         C  0.75335138  0.50587424  0.76096441    -0.02090
O31         O  0.94181816  0.49707057  0.72532530    -0.71380
O32         O  0.05053363  0.50212593  0.71394785    -0.71600
O33         O  0.99823508  0.44484173  0.72218892    -0.71460
O34         O  0.99442080  0.55406920  0.71984897    -0.71470
O35         O  0.99977460  0.55556115  0.78208477    -0.71430
O36         O  0.00368060  0.44837776  0.78448781    -0.71450
O37         O  0.05668920  0.50573423  0.77615583    -0.71390
O38         O  0.94639711  0.49952424  0.78749888    -0.71570
V39         V  0.99632288  0.49949744  0.72151796     1.35240
V40         V  0.00155257  0.50206623  0.78132661     1.35170
C41         C  0.92520290  0.49843245  0.75785586     0.77860
C42         C  0.07211817  0.50559654  0.74273430     0.77910
C43         C  0.00166509  0.42828135  0.75422284     0.77780
C44         C  0.99681445  0.57328038  0.75110536     0.77750
O45         O  0.00361626  0.55217180  0.22018680    -0.71380
O46         O  0.00251136  0.44373554  0.21740183    -0.71600
O47         O  0.94804415  0.49811448  0.22015420    -0.71460
O48         O  0.05756445  0.49857636  0.21824223    -0.71470
O49         O  0.05805000  0.49969284  0.28070609    -0.71430
O50         O  0.94820582  0.49545642  0.28263616    -0.71450
O51         O  0.00385073  0.44300551  0.27999806    -0.71390
O52         O  0.00151454  0.55169899  0.28281391    -0.71570
V53         V  0.00288057  0.49802131  0.22023387     1.35240
V54         V  0.00300110  0.49738974  0.28035984     1.35170
C55         C  0.00191372  0.57030824  0.25182893     0.77860
C56         C  0.00343411  0.42494597  0.24814243     0.77910
C57         C  0.92946379  0.49738510  0.25179179     0.77780
C58         C  0.07662727  0.50012169  0.24905638     0.77750
C59         C  0.75983015  0.50369504  0.24283982    -0.02090
C60         C  0.24747492  0.49231938  0.24117942    -0.02090
O61         O  0.50086831  0.72005792  0.94753232    -0.71380
O62         O  0.50028303  0.71872446  0.05663932    -0.71600
O63         O  0.44590974  0.71738598  0.00225961    -0.71460
O64         O  0.55573131  0.72244461  0.00124860    -0.71470
O65         O  0.55403960  0.78453856  0.00075757    -0.71430
O66         O  0.44488401  0.77935392  0.00786606    -0.71450
O67         O  0.50242538  0.78091596  0.05844520    -0.71390
O68         O  0.49645816  0.78175604  0.94985137    -0.71570
V69         V  0.50076739  0.72079262  0.00210433     1.35240
V70         V  0.49946546  0.78042408  0.00413533     1.35170
C71         C  0.49787755  0.75113363  0.93000073     0.77860
C72         C  0.50147907  0.74955390  0.07596973     0.77910
C73         C  0.42685710  0.74773677  0.00542323     0.77780
C74         C  0.57343865  0.75446584  0.99996016     0.77750
C75         C  0.50116362  0.76184580  0.76059643    -0.02090
O76         O  0.49832744  0.05171793  0.70392952    -0.71380
O77         O  0.49694011  0.94379418  0.70309711    -0.71600
O78         O  0.44254556  0.99782444  0.70490414    -0.71460
O79         O  0.55317573  0.99826383  0.70441236    -0.71470
O80         O  0.55150880  0.00241440  0.76698859    -0.71430
O81         O  0.44231279  0.99418181  0.76715997    -0.71450
O82         O  0.50070768  0.94405067  0.76559717    -0.71390
O83         O  0.49298692  0.05235322  0.76640514    -0.71570
V84         V  0.49773949  0.99782703  0.70522678     1.35240
V85         V  0.49693856  0.99820851  0.76533395     1.35170
C86         C  0.49422957  0.07034089  0.73498585     0.77860
C87         C  0.49978322  0.92561155  0.73392827     0.77910
C88         C  0.42352927  0.99663259  0.73647922     0.77780
C89         C  0.57099513  0.00065629  0.73611017     0.77750
O90         O  0.55836650  0.21192802  0.99171690    -0.71380
O91         O  0.44901675  0.21257862  0.99393707    -0.71600
O92         O  0.50351609  0.21418979  0.93839711    -0.71460
O93         O  0.50361697  0.21182290  0.04755692    -0.71470
O94         O  0.50564627  0.27377122  0.05007964    -0.71430
O95         O  0.50466206  0.27625851  0.94085237    -0.71450
O96         O  0.45058222  0.27467644  0.99715755    -0.71390
O97         O  0.56038915  0.27407213  0.99443226    -0.71570
V98         V  0.50369920  0.21386168  0.99293430     1.35240
V99         V  0.50534898  0.27352269  0.99541381     1.35170
C100        C  0.57794983  0.24268606  0.99318786     0.77860
C101        C  0.43124882  0.24356518  0.99691103     0.77910
C102        C  0.50387496  0.24572478  0.92101128     0.77780
C103        C  0.50430254  0.24239145  0.06757640     0.77750
C104        C  0.50279484  0.23824858  0.75108076    -0.02090
O105        O  0.44782492  0.00467639  0.21732287    -0.71380
O106        O  0.55726233  0.99999215  0.21085388    -0.71600
O107        O  0.49876129  0.94808240  0.21245030    -0.71460
O108        O  0.50636043  0.05717165  0.21737473    -0.71470
O109        O  0.50191284  0.05443880  0.27983542    -0.71430
O110        O  0.50868799  0.94720550  0.27412174    -0.71450
O111        O  0.55999013  0.00533058  0.27326904    -0.71390
O112        O  0.45077328  0.99617022  0.27892600    -0.71570
V113        V  0.50262483  0.00254481  0.21550438     1.35240
V114        V  0.50529466  0.00081578  0.27536427     1.35170
C115        C  0.43048278  0.99964710  0.24915836     0.77860
C116        C  0.57722061  0.00293481  0.24096180     0.77910
C117        C  0.50330314  0.92919955  0.24288837     0.77780
C118        C  0.50430649  0.07418377  0.24985655     0.77750
C119        C  0.50076651  0.76096654  0.24510744    -0.02090
C120        C  0.50053162  0.23981542  0.23869327    -0.02090
O121        O  0.20355665  0.00050024  0.55106275    -0.71380
O122        O  0.21059228  0.99224144  0.44293008    -0.71600
O123        O  0.20754778  0.94215939  0.50095288    -0.71460
O124        O  0.20893086  0.05062349  0.49341964    -0.71470
O125        O  0.27095106  0.05155340  0.50202323    -0.71430
O126        O  0.27022027  0.94318312  0.49843346    -0.71450
O127        O  0.27318445  0.99925764  0.44523233    -0.71390
O128        O  0.26599302  0.99537183  0.55471121    -0.71570
V129        V  0.20883588  0.99640964  0.49706872     1.35240
V130        V  0.26900442  0.99731970  0.50000796     1.35170
C131        C  0.23318374  0.99732711  0.57129503     0.77860
C132        C  0.24261269  0.99609835  0.42559381     0.77910
C133        C  0.23893427  0.92406150  0.50133502     0.77780
C134        C  0.24034956  0.06975202  0.49697440     0.77750
C135        C  0.24365954  0.75494244  0.50250976    -0.02090
O136        O  0.71464900  0.94775682  0.49642524    -0.71380
O137        O  0.71867857  0.05594754  0.50496763    -0.71600
O138        O  0.71719847  0.00483166  0.44644940    -0.71460
O139        O  0.71645838  0.99829548  0.55502587    -0.71470
O140        O  0.77915483  0.00541901  0.55452001    -0.71430
O141        O  0.77921532  0.99654626  0.44553684    -0.71450
O142        O  0.78108894  0.05499243  0.49629041    -0.71390
O143        O  0.77704825  0.94720570  0.50367878    -0.71570
V144        V  0.71782402  0.00181497  0.50071240     1.35240
V145        V  0.77807329  0.00109263  0.50003936     1.35170
C146        C  0.74525100  0.92912715  0.49984483     0.77860
C147        C  0.75054796  0.07384650  0.50069604     0.77910
C148        C  0.74803867  0.99958112  0.42731353     0.77780
C149        C  0.74776837  0.00152727  0.57323197     0.77750
C150        C  0.75945069  0.76313554  0.49745053    -0.02090
O151        O  0.05511546  0.70297637  0.50641204    -0.71380
O152        O  0.94570319  0.70995222  0.50230752    -0.71600
O153        O  0.00311497  0.70452248  0.44942526    -0.71460
O154        O  0.99813218  0.70965156  0.55911406    -0.71470
O155        O  0.00522815  0.77148930  0.55685527    -0.71430
O156        O  0.00557682  0.76665819  0.44826634    -0.71450
O157        O  0.95111256  0.77177007  0.50283223    -0.71390
O158        O  0.06038399  0.76477931  0.50175338    -0.71570
V159        V  0.00057638  0.70790872  0.50433922     1.35240
V160        V  0.00558473  0.76742192  0.50255769     1.35170
C161        C  0.07631577  0.73262863  0.50375810     0.77860
C162        C  0.92962470  0.74202604  0.50172396     0.77910
C163        C  0.00446063  0.73511635  0.43035777     0.77780
C164        C  0.00100368  0.74165902  0.57645827     0.77750
O165        O  0.00395665  0.22919713  0.44463105    -0.71380
O166        O  0.00283723  0.23170559  0.55373857    -0.71600
O167        O  0.94879791  0.22604734  0.49938017    -0.71460
O168        O  0.05831422  0.23610745  0.49999595    -0.71470
O169        O  0.05397706  0.29802986  0.50150101    -0.71430
O170        O  0.94507794  0.28781315  0.49516324    -0.71450
O171        O  0.99585927  0.29307785  0.55302087    -0.71390
O172        O  0.00323542  0.29131565  0.44369983    -0.71570
V173        V  0.00349086  0.23194195  0.49924467     1.35240
V174        V  0.99957030  0.29137549  0.49837802     1.35170
C175        C  0.00374668  0.25967616  0.42563613     0.77860
C176        C  0.99895437  0.26275375  0.57215814     0.77910
C177        C  0.92843296  0.25545890  0.49686458     0.77780
C178        C  0.07459117  0.26881320  0.50228281     0.77750
C179        C  0.75869884  0.24161478  0.49240517    -0.02090
C180        C  0.23774177  0.23922185  0.50094655    -0.02090
C181        C  0.01072317  0.25704543  0.25600288    -0.02090
C182        C  0.74530503  0.00228552  0.25769961    -0.02090
C183        C  0.99966734  0.73861611  0.26088560    -0.02090
C184        C  0.25905749  0.00131318  0.25781042    -0.02090
C185        C  0.99912607  0.74118915  0.74562766    -0.02090
C186        C  0.25238577  0.00757633  0.73580230    -0.02090
C187        C  0.99851786  0.26258368  0.74315492    -0.02090
C188        C  0.74141341  0.99750914  0.74210022    -0.02090
C189        C  0.26446624  0.26191585  0.99625180    -0.02090
C190        C  0.25695702  0.74151111  0.99795497    -0.02090
C191        C  0.74602474  0.25738775  0.00321311    -0.02090
C192        C  0.74306872  0.74034445  0.00448386    -0.02090
C193        C  0.81652923  0.18722499  0.13917082     0.03530
C194        C  0.85426037  0.19820502  0.15040939    -0.12620
C195        C  0.86942475  0.18652913  0.18566453     0.01030
C196        C  0.84903489  0.15823976  0.20642919    -0.11150
C197        C  0.81238338  0.14498444  0.19453746     0.03520
C198        C  0.79534837  0.16183997  0.16263692    -0.10570
H199        H  0.87180646  0.21644779  0.13197231     0.09110
H200        H  0.86186682  0.14625977  0.23164002     0.06640
H201        H  0.76567839  0.15432015  0.15580368     0.06490
C202        C  0.19250792  0.85934907  0.19062281     0.03530
C203        C  0.15682315  0.84671114  0.20562067    -0.12620
C204        C  0.13799524  0.81409073  0.19024654     0.01030
C205        C  0.15383934  0.79670065  0.15693818    -0.11150
C206        C  0.18944922  0.80952410  0.14098462     0.03520
C207        C  0.20896835  0.84057433  0.15876185    -0.10570
H208        H  0.14371290  0.86266348  0.22917316     0.09110
H209        H  0.13828286  0.77315005  0.14334975     0.06640
H210        H  0.23652981  0.85087324  0.14733838     0.06490
C211        C  0.14031281  0.19507641  0.80783297     0.03530
C212        C  0.15760197  0.21347742  0.83985598    -0.12620
C213        C  0.19026228  0.19837269  0.85709203     0.01030
C214        C  0.20637376  0.16485941  0.84218872    -0.11150
C215        C  0.18980079  0.14602574  0.81049310     0.03520
C216        C  0.15655155  0.16082419  0.79363996    -0.10570
H217        H  0.14604361  0.23992708  0.85126760     0.09110
H218        H  0.23184649  0.15337351  0.85533678     0.06640
H219        H  0.14329789  0.14536598  0.76982759     0.06490
C220        C  0.81274309  0.85980123  0.19608118     0.03530
C221        C  0.79682437  0.84484925  0.16198966    -0.12620
C222        C  0.81505109  0.81510198  0.14170143     0.01030
C223        C  0.84920315  0.80018135  0.15652119    -0.11150
C224        C  0.86370197  0.81245762  0.19241304     0.03520
C225        C  0.84564791  0.84319297  0.21158546    -0.10570
H226        H  0.77034803  0.85662193  0.15134632     0.09110
H227        H  0.86422962  0.77836201  0.14013328     0.06640
H228        H  0.85690564  0.85419987  0.23862298     0.06490
C229        C  0.19148756  0.81779584  0.86174752     0.03530
C230        C  0.15885473  0.79973506  0.84488118    -0.12620
C231        C  0.14043449  0.81557932  0.81318972     0.01030
C232        C  0.15555769  0.84985718  0.79781366    -0.11150
C233        C  0.18937845  0.86735038  0.81235296     0.03520
C234        C  0.20644420  0.85182000  0.84511879    -0.10570
H235        H  0.14786355  0.77290363  0.85625197     0.09110
H236        H  0.14113975  0.86295080  0.77403484     0.06640
H237        H  0.23068386  0.86699511  0.85805836     0.06490
C238        C  0.81466685  0.18984814  0.86213192     0.03530
C239        C  0.84400580  0.20696620  0.83979276    -0.12620
C240        C  0.85717430  0.18892925  0.80598763     0.01030
C241        C  0.83966460  0.15453553  0.79355224    -0.11150
C242        C  0.81026212  0.13655542  0.81579042     0.03520
C243        C  0.79886530  0.15415577  0.85085909    -0.10570
H244        H  0.85740809  0.23368939  0.84933515     0.09110
H245        H  0.84963937  0.14157203  0.76678993     0.06640
H246        H  0.77794992  0.14025470  0.86973401     0.06490
C247        C  0.81382476  0.86673874  0.81964254     0.03530
C248        C  0.84956909  0.85351454  0.80481298    -0.12620
C249        C  0.86845044  0.82287256  0.82162915     0.01030
C250        C  0.85241419  0.80709860  0.85549182    -0.11150
C251        C  0.81653944  0.81877740  0.87007321     0.03520
C252        C  0.79684222  0.84776146  0.85148064    -0.10570
H253        H  0.86217717  0.86620661  0.77927716     0.09110
H254        H  0.86698619  0.78420168  0.86972342     0.06640
H255        H  0.76821172  0.85507386  0.86175336     0.06490
C256        C  0.14202714  0.18319630  0.17644789     0.03530
C257        C  0.15778451  0.14913576  0.18970993    -0.12620
C258        C  0.19694444  0.13978341  0.18234269     0.01030
C259        C  0.21786165  0.16396740  0.15687856    -0.11150
C260        C  0.19970364  0.19339950  0.13748903     0.03520
C261        C  0.16285026  0.20459381  0.14921969    -0.10570
H262        H  0.13892362  0.13117683  0.20693128     0.09110
H263        H  0.24828993  0.16118737  0.15142266     0.06640
H264        H  0.15084655  0.23015386  0.13738259     0.06490
C265        C  0.31533974  0.31295626  0.63686829     0.03530
C266        C  0.29835758  0.34462868  0.65566830    -0.12620
C267        C  0.31614212  0.36249939  0.68761966     0.01030
C268        C  0.35035496  0.34783381  0.70205354    -0.11150
C269        C  0.36669630  0.31525462  0.68518787     0.03520
C270        C  0.34942026  0.29824488  0.65242670    -0.10570
H271        H  0.27117875  0.35543239  0.64570469     0.09110
H272        H  0.36348752  0.36100116  0.72728413     0.06640
H273        H  0.36262829  0.27341954  0.63918695     0.06490
C274        C  0.62850643  0.32239962  0.31968817     0.03530
C275        C  0.64476798  0.35647154  0.30485900    -0.12620
C276        C  0.68118961  0.37030921  0.31689286     0.01030
C277        C  0.69994676  0.35155733  0.34659555    -0.11150
C278        C  0.68268713  0.31949621  0.36432280     0.03520
C279        C  0.64758875  0.30458332  0.34977707    -0.10570
H280        H  0.62969002  0.37156899  0.28276770     0.09110
H281        H  0.72849284  0.36144321  0.35520430     0.06640
H282        H  0.63572080  0.27828652  0.36125593     0.06490
C283        C  0.31034212  0.63404588  0.31197168     0.03530
C284        C  0.34368157  0.65049482  0.29506516    -0.12620
C285        C  0.36314983  0.68130432  0.31334652     0.01030
C286        C  0.34845822  0.69517902  0.34878634    -0.11150
C287        C  0.31369607  0.68054837  0.36475265     0.03520
C288        C  0.29473392  0.64990300  0.34584136    -0.10570
H289        H  0.35411599  0.63929775  0.26769250     0.09110
H290        H  0.36388717  0.71805024  0.36380396     0.06640
H291        H  0.26757081  0.63841983  0.35700109     0.06490
C292        C  0.30285985  0.34583649  0.30302051     0.03530
C293        C  0.33422638  0.32772533  0.28475010    -0.12620
C294        C  0.35257147  0.29725490  0.30202787     0.01030
C295        C  0.33881523  0.28352870  0.33751201    -0.11150
C296        C  0.30675819  0.30022014  0.35582832     0.03520
C297        C  0.28904027  0.33156175  0.33863743    -0.10570
H298        H  0.34552358  0.33825061  0.25753356     0.09110
H299        H  0.35325601  0.26011470  0.35101506     0.06640
H300        H  0.26533197  0.34536205  0.35360431     0.06490
C301        C  0.30572353  0.64390102  0.69542966     0.03530
C302        C  0.34088489  0.65871167  0.70993508    -0.12620
C303        C  0.35836237  0.69163853  0.69435208     0.01030
C304        C  0.34119070  0.70955529  0.66319450    -0.11150
C305        C  0.30642610  0.69498296  0.64774077     0.03520
C306        C  0.28864764  0.66239205  0.66417569    -0.10570
H307        H  0.35509350  0.64438606  0.73313681     0.09110
H308        H  0.35515200  0.73453813  0.65063131     0.06640
H309        H  0.26202321  0.65098370  0.65202555     0.06490
C310        C  0.64369320  0.31199907  0.68495081     0.03530
C311        C  0.65761062  0.34655825  0.70094566    -0.12620
C312        C  0.68940755  0.36594836  0.68440317     0.01030
C313        C  0.70564757  0.35180373  0.64975636    -0.11150
C314        C  0.69291140  0.31652130  0.63356104     0.03520
C315        C  0.66214921  0.29670902  0.65214201    -0.10570
H316        H  0.64376295  0.35834664  0.72651456     0.09110
H317        H  0.72764855  0.36898956  0.63543040     0.06640
H318        H  0.65226595  0.26910798  0.64118860     0.06490
C319        C  0.67807801  0.63218624  0.32008015     0.03530
C320        C  0.64550132  0.64878132  0.30399707    -0.12620
C321        C  0.63023359  0.68279986  0.31933270     0.01030
C322        C  0.64713194  0.69955682  0.35222167    -0.11150
C323        C  0.67904057  0.68298613  0.36931923     0.03520
C324        C  0.69423268  0.64935234  0.35336792    -0.10570
H325        H  0.63282689  0.63608094  0.27846183     0.09110
H326        H  0.63648283  0.72636579  0.36372629     0.06640
H327        H  0.71921780  0.63707121  0.36661038     0.06490
C328        C  0.69638082  0.64754060  0.69356957     0.03530
C329        C  0.71480145  0.66614377  0.66280489    -0.12620
C330        C  0.69635735  0.69539981  0.64331393     0.01030
C331        C  0.66065953  0.70850858  0.65820657    -0.11150
C332        C  0.64213853  0.69128180  0.69010529     0.03520
C333        C  0.66009821  0.65986708  0.70695318    -0.10570
H334        H  0.74311973  0.65680639  0.65348482     0.09110
H335        H  0.64716062  0.73239477  0.64501008     0.06640
H336        H  0.64588716  0.64476868  0.73039975     0.06490
C337        C  0.76610873  0.75637339  0.96712696     0.00240
C338        C  0.79932176  0.78099950  0.97107473    -0.11630
C339        C  0.81442410  0.80290322  0.94065441     0.02480
C340        C  0.79901597  0.79866980  0.90366837     0.00160
C341        C  0.77124427  0.76981886  0.89737819    -0.11570
C342        C  0.75719718  0.74686668  0.92767320     0.02360
H343        H  0.81485449  0.78325112  0.99778457     0.15340
H344        H  0.76325061  0.76283441  0.86791941     0.15350
C345        C  0.74378773  0.70942917  0.91514153     0.37000
C346        C  0.84597074  0.82962119  0.94812040     0.36900
N347        N  0.73375274  0.67942700  0.90426420    -0.43350
N348        N  0.87115101  0.85114452  0.95403142    -0.43340
C349        C  0.76238703  0.75805322  0.04195705     0.00240
C350        C  0.76459730  0.79872012  0.04517833    -0.11630
C351        C  0.78233190  0.81796589  0.07620403     0.02480
C352        C  0.79720784  0.79703272  0.10678547     0.00160
C353        C  0.79492592  0.75714775  0.10461396    -0.11570
C354        C  0.77903395  0.73746835  0.07300245     0.02360
H355        H  0.75229182  0.81569401  0.02266698     0.15340
H356        H  0.80588284  0.74085851  0.12830250     0.15350
C357        C  0.78172596  0.69647989  0.07538934     0.37000
C358        C  0.78566065  0.85913471  0.07519007     0.36900
N359        N  0.78488621  0.66385414  0.07900598    -0.43350
N360        N  0.78829733  0.89213789  0.07430463    -0.43340
C361        C  0.76729516  0.24260128  0.96555955     0.00240
C362        C  0.79864354  0.21705761  0.96727024    -0.11630
C363        C  0.81448429  0.19999425  0.93404826     0.02480
C364        C  0.80058951  0.20919709  0.89762468     0.00160
C365        C  0.77217651  0.23677245  0.89478093    -0.11570
C366        C  0.75550652  0.25348424  0.92781901     0.02360
H367        H  0.81089618  0.20915634  0.99439350     0.15340
H368        H  0.76198318  0.24432611  0.86651412     0.15350
C369        C  0.72478719  0.28013941  0.92177239     0.37000
C370        C  0.84475140  0.17254607  0.93801775     0.36900
N371        N  0.70024134  0.30144761  0.91681971    -0.43350
N372        N  0.86895257  0.15049424  0.94113778    -0.43340
C373        C  0.76514749  0.24039065  0.03958971     0.00240
C374        C  0.75659451  0.20173193  0.04837709    -0.11630
C375        C  0.77386440  0.18330932  0.07913290     0.02480
C376        C  0.79882666  0.20403435  0.10421212     0.00160
C377        C  0.80801035  0.24208763  0.09531998    -0.11570
C378        C  0.79396044  0.25942774  0.06251447     0.02360
H379        H  0.73756361  0.18502912  0.02979344     0.15340
H380        H  0.82744419  0.25852300  0.11362870     0.15350
C381        C  0.81264660  0.29546282  0.05312111     0.37000
C382        C  0.76739057  0.14255554  0.08208526     0.36900
N383        N  0.82861898  0.32417470  0.04690501    -0.43350
N384        N  0.76207175  0.10986130  0.08385090    -0.43340
C385        C  0.23926561  0.76229240  0.96253471     0.00240
C386        C  0.26340582  0.78153403  0.93543267    -0.11630
C387        C  0.24907783  0.79880934  0.90265847     0.02480
C388        C  0.20881901  0.80086076  0.89703761     0.00160
C389        C  0.18415225  0.78530086  0.92568161    -0.11570
C390        C  0.19859019  0.76614074  0.95767522     0.02360
H391        H  0.29427618  0.78377695  0.93911230     0.15340
H392        H  0.15308203  0.78752654  0.92283161     0.15350
C393        C  0.17046617  0.74939075  0.98394100     0.37000
C394        C  0.27742677  0.81258382  0.87507696     0.36900
N395        N  0.14754171  0.73598695  0.00457200    -0.43350
N396        N  0.30160625  0.82314247  0.85424246    -0.43340
C397        C  0.23774600  0.75984093  0.03516842     0.00240
C398        C  0.21811179  0.73696471  0.06302152    -0.11630
C399        C  0.20449655  0.75193589  0.09804637     0.02480
C400        C  0.20560546  0.79172988  0.10493640     0.00160
C401        C  0.22209286  0.81532024  0.07642873    -0.11570
C402        C  0.23850477  0.80012123  0.04248781     0.02360
H403        H  0.21299973  0.70675881  0.05843885     0.15340
H404        H  0.22252734  0.84607991  0.08076604     0.15350
C405        C  0.25708469  0.82697611  0.01658821     0.37000
C406        C  0.19158345  0.72512273  0.12705230     0.36900
N407        N  0.27203055  0.84895769  0.99638276    -0.43350
N408        N  0.18142886  0.70350102  0.15019304    -0.43340
C409        C  0.24258334  0.24548979  0.96019248     0.00240
C410        C  0.26096062  0.24923232  0.92367194    -0.11630
C411        C  0.24434811  0.23462208  0.88990906     0.02480
C412        C  0.20748812  0.21714968  0.89135577     0.00160
C413        C  0.18686427  0.21680336  0.92620763    -0.11570
C414        C  0.20322495  0.23158064  0.96018606     0.02360
H415        H  0.28955781  0.26194140  0.92149453     0.15340
H416        H  0.15759651  0.20492675  0.92679645     0.15350
C417        C  0.17719667  0.23396264  0.99300929     0.37000
C418        C  0.26561458  0.23808868  0.85397825     0.36900
N419        N  0.15580754  0.23577361  0.01889801    -0.43350
N420        N  0.28256048  0.24093404  0.82514735    -0.43340
C421        C  0.24743526  0.24663209  0.03518482     0.00240
C422        C  0.24287892  0.20645293  0.03775669    -0.11630
C423        C  0.22785349  0.18885373  0.07062788     0.02480
C424        C  0.21834414  0.21105622  0.10333349     0.00160
C425        C  0.22493964  0.25055401  0.10263537    -0.11570
C426        C  0.24034273  0.26849282  0.06978817     0.02360
H427        H  0.24943425  0.18853562  0.01298763     0.15340
H428        H  0.21875460  0.26740177  0.12840600     0.15350
C429        C  0.25122143  0.30825579  0.07511970     0.37000
C430        C  0.22029426  0.14808120  0.06909277     0.36900
N431        N  0.26012380  0.33994703  0.08051893    -0.43350
N432        N  0.21406648  0.11546547  0.06774635    -0.43340
C433        C  0.76034912  0.96141151  0.75997977     0.00240
C434        C  0.75639865  0.95741377  0.80046050    -0.11630
C435        C  0.77376539  0.92787655  0.82053191     0.02480
C436        C  0.79385115  0.89892884  0.80022170     0.00160
C437        C  0.79708895  0.90192241  0.76006126    -0.11570
C438        C  0.78341418  0.93339961  0.74028955     0.02360
H439        H  0.74013366  0.97838820  0.81686548     0.15340
H440        H  0.81201868  0.88000310  0.74365071     0.15350
C441        C  0.79792124  0.93624709  0.70120560     0.37000
C442        C  0.77210379  0.92960911  0.86209804     0.36900
N443        N  0.81076691  0.93763028  0.67025708    -0.43350
N444        N  0.77075806  0.93119293  0.89541822    -0.43340
C445        C  0.76020514  0.03218690  0.76513614     0.00240
C446        C  0.73755083  0.05648151  0.78902716    -0.11630
C447        C  0.75257016  0.09053126  0.80514325     0.02480
C448        C  0.79259046  0.09926461  0.80216647     0.00160
C449        C  0.81639185  0.07229153  0.78385128    -0.11570
C450        C  0.80097867  0.03972704  0.76506156     0.02360
H451        H  0.70737759  0.05001700  0.79480901     0.15340
H452        H  0.84744722  0.07738494  0.78281900     0.15350
C453        C  0.82824523  0.01654878  0.74393596     0.37000
C454        C  0.72532777  0.11681357  0.82215845     0.36900
N455        N  0.85155043  0.99936745  0.72737759    -0.43350
N456        N  0.70327296  0.13774092  0.83561956    -0.43340
C457        C  0.96058729  0.24008030  0.75578959     0.00240
C458        C  0.96225531  0.20873301  0.78119098    -0.11630
C459        C  0.92901532  0.19213630  0.79765913     0.02480
C460        C  0.89239897  0.20377021  0.78634332     0.00160
C461        C  0.88963537  0.23051146  0.75711300    -0.11570
C462        C  0.92295157  0.24848053  0.74151265     0.02360
H463        H  0.98934419  0.19675529  0.78934025     0.15340
H464        H  0.86121465  0.23852842  0.74754072     0.15350
C465        C  0.91651262  0.27689816  0.71266582     0.37000
C466        C  0.93320641  0.16397557  0.82730026     0.36900
N467        N  0.91018881  0.29941768  0.68960634    -0.43350
N468        N  0.93645098  0.14172749  0.85132435    -0.43340
C469        C  0.10493384  0.21160745  0.79036722     0.00240
C470        C  0.07628223  0.22677189  0.81482308    -0.11630
C471        C  0.04331753  0.24400360  0.80040613     0.02480
C472        C  0.03612144  0.24426803  0.75993851     0.00160
C473        C  0.06634730  0.23067920  0.73560825    -0.11570
C474        C  0.09998113  0.21459753  0.75020878     0.02360
H475        H  0.07966800  0.22538457  0.84578513     0.15340
H476        H  0.06509282  0.23360015  0.70475869     0.15350
C477        C  0.12987698  0.20348505  0.72305494     0.37000
C478        C  0.01732895  0.26082231  0.82853722     0.36900
N479        N  0.15374678  0.19456178  0.70122289    -0.43350
N480        N  0.99711487  0.27404105  0.85174949    -0.43340
C481        C  0.23570251  0.97059149  0.75681804     0.00240
C482        C  0.25955535  0.93904905  0.76433358    -0.11630
C483        C  0.24501058  0.90525554  0.78108035     0.02480
C484        C  0.20605691  0.90238507  0.79341996     0.00160
C485        C  0.18158231  0.93223710  0.78437234    -0.11570
C486        C  0.19521900  0.96466816  0.76461040     0.02360
H487        H  0.28930803  0.93894860  0.75438275     0.15340
H488        H  0.15108431  0.92978074  0.79194447     0.15350
C489        C  0.16608377  0.99106049  0.75332705     0.37000
C490        C  0.26938689  0.87230255  0.78006780     0.36900
N491        N  0.14129391  0.01109660  0.74542306    -0.43350
N492        N  0.28897695  0.84598097  0.77732477    -0.43340
C493        C  0.24071815  0.04537254  0.75807738     0.00240
C494        C  0.22192845  0.04370853  0.79474369    -0.11630
C495        C  0.20473094  0.07575920  0.81194057     0.02480
C496        C  0.20835349  0.11147337  0.79430041     0.00160
C497        C  0.23255615  0.11510755  0.76207600    -0.11570
C498        C  0.24976853  0.08310211  0.74466966     0.02360
H499        H  0.21968962  0.01729537  0.81038915     0.15340
H500        H  0.23779568  0.14330596  0.75019189     0.15350
C501        C  0.27527793  0.09152333  0.71268127     0.37000
C502        C  0.18296050  0.07118059  0.84742706     0.36900
N503        N  0.29546631  0.10203748  0.68800202    -0.43350
N504        N  0.16547452  0.06751321  0.87584397    -0.43340
C505        C  0.90163646  0.80349315  0.80160466     0.00240
C506        C  0.90107781  0.76356696  0.80070724    -0.11630
C507        C  0.93148101  0.74252291  0.78505982     0.02480
C508        C  0.96288544  0.76127036  0.76459935     0.00160
C509        C  0.96269230  0.80185143  0.76520743    -0.11570
C510        C  0.93334630  0.82277047  0.78392195     0.02360
H511        H  0.87683149  0.74821351  0.81390650     0.15340
H512        H  0.98651051  0.81750253  0.75168975     0.15350
C513        C  0.93780159  0.86382831  0.78618163     0.37000
C514        C  0.92933565  0.70263536  0.79525183     0.36900
N515        N  0.94149837  0.89675148  0.78801381    -0.43350
N516        N  0.92639199  0.67108689  0.80468253    -0.43340
C517        C  0.03659765  0.76034691  0.76451427     0.00240
C518        C  0.06611854  0.77756804  0.74113639    -0.11630
C519        C  0.10048669  0.79288886  0.75605498     0.02480
C520        C  0.10531117  0.79634572  0.79613241     0.00160
C521        C  0.07550479  0.78212155  0.82023719    -0.11570
C522        C  0.04178671  0.76441012  0.80522530     0.02360
H523        H  0.06360062  0.77950590  0.71034897     0.15340
H524        H  0.07831416  0.78526755  0.85121134     0.15350
C525        C  0.01299205  0.75159075  0.83295958     0.37000
C526        C  0.13096454  0.80330938  0.72897418     0.36900
N527        N  0.99050565  0.74148288  0.85583007    -0.43350
N528        N  0.15528031  0.81153046  0.70719691    -0.43340
C529        C  0.24086026  0.96485663  0.23742174     0.00240
C530        C  0.25462775  0.92879216  0.24894525    -0.11630
C531        C  0.23973215  0.89421644  0.23401219     0.02480
C532        C  0.21070846  0.89459931  0.20624940     0.00160
C533        C  0.19796900  0.92934760  0.19289968    -0.11570
C534        C  0.21290256  0.96416668  0.20705781     0.02360
H535        H  0.27658106  0.92759931  0.27089156     0.15340
H536        H  0.17626263  0.92912440  0.17053789     0.15350
C537        C  0.19935933  0.99692870  0.18690081     0.37000
C538        C  0.25413573  0.85866946  0.24808644     0.36900
N539        N  0.18749010  0.02176501  0.16916383    -0.43350
N540        N  0.26567095  0.83016311  0.25934950    -0.43340
C541        C  0.21511283  0.10605271  0.20221024     0.00240
C542        C  0.19593760  0.08949588  0.23427927    -0.11630
C543        C  0.20768381  0.05516647  0.25025035     0.02480
C544        C  0.24429184  0.03938422  0.24001415     0.00160
C545        C  0.26611283  0.05954322  0.21194611    -0.11570
C546        C  0.25046015  0.08894550  0.19041724     0.02360
H547        H  0.17027166  0.10191152  0.24670060     0.15340
H548        H  0.29497703  0.05163286  0.20428008     0.15350
C549        C  0.27036050  0.09693574  0.15451775     0.37000
C550        C  0.17963631  0.03616931  0.27509487     0.36900
N551        N  0.28682518  0.10229263  0.12577034    -0.43350
N552        N  0.15657081  0.02143510  0.29463806    -0.43340
C553        C  0.96339760  0.75800977  0.24324383     0.00240
C554        C  0.93462840  0.73642423  0.22337183    -0.11630
C555        C  0.90158755  0.75311438  0.20864242     0.02480
C556        C  0.89770269  0.79325519  0.20957381     0.00160
C557        C  0.92677667  0.81540259  0.22754006    -0.11570
C558        C  0.95859774  0.79855098  0.24486280     0.02360
H559        H  0.93710599  0.70606379  0.21876513     0.15340
H560        H  0.92446987  0.84625843  0.22856006     0.15350
C561        C  0.98474488  0.82393149  0.26558728     0.37000
C562        C  0.87122356  0.72761901  0.19481767     0.36900
N563        N  0.00519161  0.84473353  0.28222965    -0.43350
N564        N  0.84708399  0.70676752  0.18418041    -0.43340
C565        C  0.10200773  0.79792213  0.20882411     0.00240
C566        C  0.07196946  0.78339022  0.18564767    -0.11630
C567        C  0.03975169  0.76398267  0.20153044     0.02480
C568        C  0.03535622  0.76033193  0.24234748     0.00160
C569        C  0.06412433  0.77859830  0.26525320    -0.11570
C570        C  0.09778000  0.79494402  0.24922191     0.02360
H571        H  0.07416005  0.78602163  0.15461075     0.15340
H572        H  0.06140156  0.78028115  0.29617237     0.15350
C573        C  0.12839151  0.80598763  0.27538158     0.37000
C574        C  0.01319989  0.74607476  0.17463124     0.36900
N575        N  0.15284373  0.81458676  0.29647327    -0.43350
N576        N  0.99246360  0.73173097  0.15257720    -0.43340
C577        C  0.76539446  0.96556466  0.24083359     0.00240
C578        C  0.74875601  0.92954994  0.25096016    -0.11630
C579        C  0.76354324  0.89489870  0.23704787     0.02480
C580        C  0.79680010  0.89504456  0.21347766     0.00160
C581        C  0.81532486  0.92973425  0.20513688    -0.11570
C582        C  0.80094305  0.96458538  0.21880038     0.02360
H583        H  0.72313217  0.92846663  0.26926696     0.15340
H584        H  0.84170126  0.92946779  0.18778046     0.15350
C585        C  0.82588683  0.99723386  0.21088609     0.37000
C586        C  0.74421911  0.85948380  0.24742936     0.36900
N587        N  0.84689166  0.02255361  0.20413536    -0.43350
N588        N  0.72878821  0.83106106  0.25576953    -0.43340
C589        C  0.79350146  0.11077200  0.21232499     0.00240
C590        C  0.77725292  0.08284695  0.18775447    -0.11630
C591        C  0.76145716  0.04872668  0.20179678     0.02480
C592        C  0.76338558  0.04023036  0.24182998     0.00160
C593        C  0.77865886  0.06933384  0.26644182    -0.11570
C594        C  0.79287258  0.10425046  0.25228800     0.02360
H595        H  0.77780626  0.08714254  0.15690971     0.15340
H596        H  0.77772946  0.06639259  0.29730565     0.15350
C597        C  0.80443769  0.13359075  0.27976721     0.37000
C598        C  0.74588019  0.02208503  0.17346748     0.36900
N599        N  0.81360385  0.15702804  0.30189064    -0.43350
N600        N  0.73389109  0.00118030  0.15016428    -0.43340
C601        C  0.90604019  0.20418811  0.20120230     0.00240
C602        C  0.93240101  0.18153791  0.22055700    -0.11630
C603        C  0.96517825  0.19753909  0.23870885     0.02480
C604        C  0.97372347  0.23763751  0.23683125     0.00160
C605        C  0.94880552  0.25903107  0.21360099    -0.11570
C606        C  0.91449315  0.24370512  0.19856955     0.02360
H607        H  0.92722362  0.15092627  0.22203169     0.15340
H608        H  0.95515970  0.28847226  0.20671254     0.15350
C609        C  0.88760169  0.27037850  0.18304975     0.37000
C610        C  0.98874910  0.17134736  0.25930538     0.36900
N611        N  0.86638117  0.29235112  0.17120972    -0.43350
N612        N  0.00633559  0.14905154  0.27556527    -0.43340
C613        C  0.04555239  0.23572110  0.23688057     0.00240
C614        C  0.04719428  0.23458816  0.19596888    -0.11630
C615        C  0.07682425  0.21625356  0.17539957     0.02480
C616        C  0.10668036  0.19874129  0.19543550     0.00160
C617        C  0.10419487  0.19743785  0.23564883    -0.11570
C618        C  0.07365658  0.21369606  0.25633067     0.02360
H619        H  0.02533149  0.24898242  0.17979446     0.15340
H620        H  0.12649242  0.18313507  0.25139231     0.15350
C621        C  0.07190694  0.20337337  0.29646864     0.37000
C622        C  0.07533526  0.21531668  0.13384975     0.36900
N623        N  0.07135586  0.19388969  0.32830075    -0.43350
N624        N  0.07408046  0.21458326  0.10054307    -0.43340
C625        C  0.25765472  0.25294589  0.46181494     0.00240
C626        C  0.29432915  0.27224799  0.46143582    -0.11630
C627        C  0.31057056  0.28805666  0.42767959     0.02480
C628        C  0.29115754  0.28406264  0.39246222     0.00160
C629        C  0.25703974  0.26217651  0.39135901    -0.11570
C630        C  0.24094555  0.24569218  0.42469900     0.02360
H631        H  0.31117804  0.27513268  0.48734183     0.15340
H632        H  0.24298660  0.25753240  0.36384344     0.15350
C633        C  0.20666089  0.22241715  0.41847181     0.37000
C634        C  0.34704938  0.30879123  0.42998806     0.36900
N635        N  0.17951177  0.20433358  0.41027743    -0.43350
N636        N  0.37627271  0.32543863  0.43183199    -0.43340
C637        C  0.26069438  0.25564239  0.53713201     0.00240
C638        C  0.26353080  0.29612368  0.54056365    -0.11630
C639        C  0.28182269  0.31510765  0.57148316     0.02480
C640        C  0.29690166  0.29417295  0.60209664     0.00160
C641        C  0.29399420  0.25415991  0.59974816    -0.11570
C642        C  0.27643475  0.23474247  0.56845012     0.02360
H643        H  0.25171114  0.31338814  0.51803351     0.15340
H644        H  0.30456426  0.23765998  0.62350985     0.15350
C645        C  0.27282156  0.19390894  0.57299744     0.37000
C646        C  0.28594620  0.35621410  0.56999579     0.36900
N647        N  0.27016617  0.16141870  0.57864246    -0.43350
N648        N  0.28922267  0.38915941  0.56875239    -0.43340
C649        C  0.73743705  0.25986110  0.45784196     0.00240
C650        C  0.73717279  0.30040180  0.45693517    -0.11630
C651        C  0.71909700  0.32028841  0.42772907     0.02480
C652        C  0.70197940  0.30003960  0.39668770     0.00160
C653        C  0.70108021  0.26001534  0.39762118    -0.11570
C654        C  0.71567622  0.24002600  0.42862578     0.02360
H655        H  0.75172611  0.31692054  0.47930719     0.15340
H656        H  0.68741560  0.24387149  0.37442772     0.15350
C657        C  0.70328470  0.20039905  0.43002228     0.37000
C658        C  0.71764788  0.36141044  0.43130010     0.36900
N659        N  0.69208695  0.16897582  0.43031723    -0.43350
N660        N  0.71650043  0.39435433  0.43427218    -0.43340
C661        C  0.74099485  0.26195646  0.52943759     0.00240
C662        C  0.76426669  0.28576525  0.55355507    -0.11630
C663        C  0.75005892  0.30315150  0.58723119     0.02480
C664        C  0.71027130  0.30010080  0.59702566     0.00160
C665        C  0.68601401  0.27986720  0.57121230    -0.11570
C666        C  0.70057325  0.26091340  0.53835128     0.02360
H667        H  0.79424389  0.29189040  0.54653103     0.15340
H668        H  0.65505443  0.27866883  0.57663250     0.15350
C669        C  0.67269429  0.24031187  0.51490405     0.37000
C670        C  0.77823910  0.32318912  0.61069466     0.36900
N671        N  0.64941823  0.22398575  0.49709631    -0.43350
N672        N  0.80214135  0.33929055  0.62783981    -0.43340
C673        C  0.19643513  0.25619058  0.50677028     0.00240
C674        C  0.18093339  0.28187818  0.48003366    -0.11630
C675        C  0.14118489  0.28875624  0.47917781     0.02480
C676        C  0.11664534  0.27220537  0.50707075     0.00160
C677        C  0.13277427  0.25467544  0.53869935    -0.11570
C678        C  0.17232733  0.24713955  0.53941392     0.02360
H679        H  0.19899432  0.29540147  0.45835419     0.15340
H680        H  0.11382338  0.24397229  0.56148471     0.15350
C681        C  0.18488062  0.22562431  0.57191716     0.37000
C682        C  0.12607845  0.31072659  0.44810392     0.36900
N683        N  0.19255328  0.20845943  0.59891441    -0.43350
N684        N  0.11417405  0.32849988  0.42320838    -0.43340
C685        C  0.99899541  0.26211728  0.69766997     0.00240
C686        C  0.99826518  0.29668779  0.67661626    -0.11630
C687        C  0.99900726  0.29759140  0.63655819     0.02480
C688        C  0.99841921  0.26325335  0.61501913     0.00160
C689        C  0.99729221  0.22851008  0.63497287    -0.11570
C690        C  0.99731834  0.22754819  0.67544926     0.02360
H691        H  0.99533552  0.32414251  0.69061608     0.15340
H692        H  0.99630933  0.20170867  0.61889188     0.15350
C693        C  0.99578939  0.19040701  0.69310989     0.37000
C694        C  0.00044966  0.33476639  0.61883387     0.36900
N695        N  0.99464039  0.16049229  0.70692045    -0.43350
N696        N  0.00178797  0.36464086  0.60493979    -0.43340
C697        C  0.00461669  0.25829355  0.38327616     0.00240
C698        C  0.03534855  0.27629141  0.36409309    -0.11630
C699        C  0.03861159  0.27476784  0.32394865     0.02480
C700        C  0.00986011  0.25508325  0.30117054     0.00160
C701        C  0.97790716  0.23858570  0.32149435    -0.11570
C702        C  0.97568190  0.23925345  0.36186571     0.02360
H703        H  0.05763699  0.29087722  0.38077776     0.15340
H704        H  0.95360201  0.22591337  0.30649662     0.15350
C705        C  0.94236053  0.22180806  0.38070653     0.37000
C706        C  0.07327294  0.29233281  0.30785455     0.36900
N707        N  0.91563910  0.20791215  0.39580511    -0.43350
N708        N  0.10187452  0.30628253  0.29674872    -0.43340
C709        C  0.88612551  0.25240304  0.49562795     0.00240
C710        C  0.86709214  0.26945223  0.46537043    -0.11630
C711        C  0.82678023  0.26684526  0.46201878     0.02480
C712        C  0.80389228  0.24812161  0.49126183     0.00160
C713        C  0.82443067  0.23126089  0.52175127    -0.11570
C714        C  0.86464310  0.23307284  0.52398644     0.02360
H715        H  0.88423418  0.28370332  0.44317400     0.15340
H716        H  0.80855550  0.21666322  0.54453830     0.15350
C717        C  0.88310734  0.21615185  0.55653373     0.37000
C718        C  0.81226755  0.28100355  0.42628340     0.36900
N719        N  0.89795362  0.20274237  0.58263898    -0.43350
N720        N  0.80229641  0.29220112  0.39687879    -0.43340
C721        C  0.00202913  0.74586688  0.70066489     0.00240
C722        C  0.97598976  0.76841709  0.68005938    -0.11630
C723        C  0.97566272  0.76806346  0.63963453     0.02480
C724        C  0.00081454  0.74415330  0.61869947     0.00160
C725        C  0.02747506  0.72273051  0.63818486    -0.11570
C726        C  0.02919156  0.72391002  0.67821943     0.02360
H727        H  0.95437274  0.78515063  0.69476328     0.15340
H728        H  0.04756677  0.70521929  0.62184886     0.15350
C729        C  0.05937549  0.70175165  0.69514124     0.37000
C730        C  0.94772153  0.79086940  0.62026742     0.36900
N731        N  0.08375341  0.68406637  0.70823118    -0.43350
N732        N  0.92535248  0.80912585  0.60471464    -0.43340
C733        C  0.00309769  0.73493671  0.38813091     0.00240
C734        C  0.97151226  0.75157048  0.37091532    -0.11630
C735        C  0.96831620  0.75318067  0.33082284     0.02480
C736        C  0.99954966  0.74074025  0.30630012     0.00160
C737        C  0.03082904  0.72302344  0.32493581    -0.11570
C738        C  0.03274948  0.72004782  0.36498586     0.02360
H739        H  0.94812973  0.76195112  0.38921450     0.15340
H740        H  0.05421523  0.71119330  0.30774088     0.15350
C741        C  0.06587172  0.70244752  0.38172366     0.37000
C742        C  0.93062020  0.76389950  0.31784261     0.36900
N743        N  0.09238906  0.68834485  0.39518845    -0.43350
N744        N  0.89980232  0.77225813  0.30891630    -0.43340
C745        C  0.73873539  0.74300025  0.46226405     0.00240
C746        C  0.70028944  0.72838624  0.46713140    -0.11630
C747        C  0.68085947  0.70819954  0.43781566     0.02480
C748        C  0.69881084  0.70295944  0.40170996     0.00160
C749        C  0.73561847  0.71896444  0.39531271    -0.11570
C750        C  0.75528455  0.73945393  0.42433354     0.02360
H751        H  0.68474248  0.73243283  0.49406549     0.15340
H752        H  0.74874939  0.71618539  0.36684278     0.15350
C753        C  0.79132798  0.75730108  0.41227208     0.37000
C754        C  0.64276044  0.69223717  0.44576713     0.36900
N755        N  0.81992660  0.77066894  0.40042941    -0.43350
N756        N  0.61230747  0.67925365  0.45210998    -0.43340
C757        C  0.74156593  0.74538262  0.53609732     0.00240
C758        C  0.74520081  0.70599967  0.54374295    -0.11630
C759        C  0.73126764  0.68917130  0.57786453     0.02480
C760        C  0.71350301  0.71180678  0.60695194     0.00160
C761        C  0.70721555  0.75016014  0.59867343    -0.11570
C762        C  0.71621438  0.76516229  0.56253232     0.02360
H763        H  0.75476085  0.68670397  0.52154855     0.15340
H764        H  0.69210006  0.76813833  0.61931856     0.15350
C765        C  0.69226458  0.79672995  0.55204735     0.37000
C766        C  0.73275569  0.64802440  0.58022046     0.36900
N767        N  0.67233072  0.82156997  0.54426631    -0.43350
N768        N  0.73408640  0.61506719  0.58188434    -0.43340
C769        C  0.88690306  0.74555746  0.49881389     0.00240
C770        C  0.87258518  0.78194522  0.49302566    -0.11630
C771        C  0.83330644  0.78792912  0.48772923     0.02480
C772        C  0.80503612  0.75759253  0.49414818     0.00160
C773        C  0.82064171  0.72050781  0.49437265    -0.11570
C774        C  0.86051279  0.71423172  0.49759388     0.02360
H775        H  0.89266381  0.80600862  0.48983920     0.15340
H776        H  0.80252652  0.69581135  0.48901308     0.15350
C777        C  0.87320080  0.67519918  0.49824465     0.37000
C778        C  0.82566034  0.82376630  0.46914819     0.36900
N779        N  0.88318214  0.64384585  0.49861823    -0.43350
N780        N  0.82095457  0.85236837  0.45370019    -0.43340
C781        C  0.75210098  0.11576887  0.49968031     0.00240
C782        C  0.77157291  0.13317464  0.46902064    -0.11630
C783        C  0.77288089  0.17287715  0.46554264     0.02480
C784        C  0.75437109  0.19693661  0.49377688     0.00160
C785        C  0.73691935  0.17836511  0.52591534    -0.11570
C786        C  0.73485920  0.13849342  0.52847422     0.02360
H787        H  0.78512144  0.11544600  0.44696489     0.15340
H788        H  0.72563208  0.19431076  0.55020449     0.15350
C789        C  0.71682855  0.12154054  0.56211712     0.37000
C790        C  0.79227093  0.18721643  0.43138464     0.36900
N791        N  0.70254167  0.10790069  0.58909966    -0.43350
N792        N  0.80770814  0.19704451  0.40333072    -0.43340
C793        C  0.75229533  0.80677797  0.49903596     0.00240
C794        C  0.73094991  0.82517402  0.47040182    -0.11630
C795        C  0.72691121  0.86493246  0.47092074     0.02480
C796        C  0.74437777  0.88725684  0.50021611     0.00160
C797        C  0.76399960  0.86956066  0.52963297    -0.11570
C798        C  0.76794202  0.83007992  0.52975023     0.02360
H799        H  0.71797542  0.80910182  0.44689625     0.15340
H800        H  0.77706868  0.88688649  0.55237957     0.15350
C801        C  0.78988722  0.81461341  0.56097187     0.37000
C802        C  0.70678793  0.88226853  0.43970563     0.36900
N803        N  0.80745147  0.80233504  0.58593149    -0.43350
N804        N  0.69070504  0.89587562  0.41448744    -0.43340
C805        C  0.74757110  0.00036650  0.61536318     0.00240
C806        C  0.76327082  0.03128219  0.63605246    -0.11630
C807        C  0.76139361  0.03268879  0.67639192     0.02480
C808        C  0.74685684  0.00027105  0.69736971     0.00160
C809        C  0.72970556  0.97008165  0.67520742    -0.11570
C810        C  0.73007073  0.96982396  0.63508750     0.02360
H811        H  0.77478305  0.05571348  0.62035353     0.15340
H812        H  0.71657690  0.94571488  0.68959827     0.15350
C813        C  0.71347765  0.93715442  0.61482468     0.37000
C814        C  0.76958801  0.06990422  0.69316261     0.36900
N815        N  0.70025456  0.91095907  0.59861826    -0.43350
N816        N  0.77573392  0.10042760  0.70521288    -0.43340
C817        C  0.74760217  0.99675408  0.38474529     0.00240
C818        C  0.78247243  0.00016779  0.36382322    -0.11630
C819        C  0.78309574  0.99981552  0.32339727     0.02480
C820        C  0.74778717  0.99794714  0.30261649     0.00160
C821        C  0.71399418  0.98835230  0.32443370    -0.11570
C822        C  0.71321416  0.98930980  0.36447448     0.02360
H823        H  0.80951630  0.00371115  0.37910247     0.15340
H824        H  0.68719338  0.98005573  0.31063379     0.15350
C825        C  0.67639245  0.98198658  0.38353542     0.37000
C826        C  0.82069135  0.00233149  0.30500184     0.36900
N827        N  0.64676944  0.97624383  0.39853182    -0.43350
N828        N  0.85172210  0.00446492  0.29218544    -0.43340
C829        C  0.26358239  0.73835166  0.46523150     0.00240
C830        C  0.26184849  0.69787081  0.46114325    -0.11630
C831        C  0.27890235  0.67845388  0.43000678     0.02480
C832        C  0.29636646  0.69920339  0.39972333     0.00160
C833        C  0.29671015  0.73922904  0.40216555    -0.11570
C834        C  0.28098123  0.75900692  0.43391002     0.02360
H835        H  0.24857615  0.68098436  0.48391629     0.15340
H836        H  0.30867706  0.75549498  0.37825790     0.15350
C837        C  0.28091990  0.79994509  0.42981692     0.37000
C838        C  0.28003983  0.63725818  0.43139552     0.36900
N839        N  0.28114660  0.83247707  0.42414230    -0.43350
N840        N  0.28097079  0.60425541  0.43262118    -0.43340
C841        C  0.26328122  0.74010997  0.54036281     0.00240
C842        C  0.24523736  0.74899275  0.57632683    -0.11630
C843        C  0.25813179  0.73428378  0.61133461     0.02480
C844        C  0.29112588  0.71151132  0.61184635     0.00160
C845        C  0.31148164  0.70530398  0.57746138    -0.11570
C846        C  0.29895578  0.71967953  0.54233818     0.02360
H847        H  0.21966568  0.76641110  0.57688843     0.15340
H848        H  0.33804905  0.68931972  0.57824108     0.15350
C849        C  0.32622152  0.71492884  0.51080743     0.37000
C850        C  0.23727644  0.74322198  0.64649179     0.36900
N851        N  0.34896567  0.71086827  0.48637115    -0.43350
N852        N  0.22064127  0.75035550  0.67475246    -0.43340
C853        C  0.20047530  0.73995026  0.49818944     0.00240
C854        C  0.18206027  0.71578325  0.52564572    -0.11630
C855        C  0.14152679  0.71159764  0.52754560     0.02480
C856        C  0.11870440  0.73020716  0.50063524     0.00160
C857        C  0.13670471  0.74816025  0.46954493    -0.11570
C858        C  0.17686132  0.75205577  0.46709620     0.02360
H859        H  0.19866397  0.70096723  0.54667570     0.15340
H860        H  0.11900199  0.76038841  0.44741928     0.15350
C861        C  0.19129566  0.77232714  0.43381185     0.37000
C862        C  0.12409306  0.69001734  0.55859709     0.36900
N863        N  0.20019148  0.78848455  0.40611287    -0.43350
N864        N  0.11029424  0.67263574  0.58353814    -0.43340
C865        C  0.23626774  0.19428709  0.49742769     0.00240
C866        C  0.27196573  0.17556173  0.49208114    -0.11630
C867        C  0.27451646  0.13544065  0.49159012     0.02480
C868        C  0.24065462  0.11234304  0.49561298     0.00160
C869        C  0.20509526  0.13030222  0.49719455    -0.11570
C870        C  0.20214898  0.16998165  0.49632523     0.02360
H871        H  0.29849091  0.19258092  0.49017616     0.15340
H872        H  0.17870425  0.11290648  0.49793989     0.15350
C873        C  0.16326224  0.18191789  0.48920972     0.37000
C874        C  0.31237217  0.11914546  0.48733559     0.36900
N875        N  0.13146891  0.18855607  0.48224008    -0.43350
N876        N  0.34280473  0.10624163  0.48393327    -0.43340
C877        C  0.23637637  0.00254899  0.69417497     0.00240
C878        C  0.24815647  0.96911238  0.67380544    -0.11630
C879        C  0.24569603  0.96595639  0.63386208     0.02480
C880        C  0.22940126  0.99561349  0.61330425     0.00160
C881        C  0.21065649  0.02496124  0.63334092    -0.11570
C882        C  0.21312840  0.02846291  0.67354672     0.02360
H883        H  0.26378830  0.94724173  0.68839584     0.15340
H884        H  0.19545697  0.04625970  0.61729553     0.15350
C885        C  0.19015416  0.05803918  0.69109646     0.37000
C886        C  0.26239611  0.93325931  0.61449668     0.36900
N887        N  0.17081452  0.08189052  0.70372897    -0.43350
N888        N  0.27585926  0.90707921  0.59907973    -0.43340
C889        C  0.24798760  0.00302654  0.30192679     0.00240
C890        C  0.22739349  0.97268312  0.32018958    -0.11630
C891        C  0.22590399  0.96970298  0.36028595     0.02480
C892        C  0.24351596  0.99817886  0.38341387     0.00160
C893        C  0.25928689  0.03089835  0.36626032    -0.11570
C894        C  0.26071305  0.03425998  0.32615875     0.02360
H895        H  0.21268365  0.95050156  0.30378692     0.15340
H896        H  0.27093407  0.05382941  0.38434377     0.15350
C897        C  0.27935659  0.06839115  0.31110414     0.37000
C898        C  0.20781732  0.93609351  0.37701585     0.36900
N899        N  0.29430697  0.09579858  0.29929383    -0.43350
N900        N  0.19357831  0.90910070  0.39047430    -0.43340
C901        C  0.23958238  0.88171176  0.50579590     0.00240
C902        C  0.27529774  0.86341802  0.50850611    -0.11630
C903        C  0.27758757  0.82332954  0.51010385     0.02480
C904        C  0.24348121  0.79992087  0.50702788     0.00160
C905        C  0.20801766  0.81948018  0.51184372    -0.11570
C906        C  0.20560557  0.85911821  0.50938724     0.02360
H907        H  0.30188669  0.88043766  0.50861910     0.15340
H908        H  0.18111332  0.80433196  0.51767915     0.15350
C909        C  0.16746637  0.87529099  0.51072514     0.37000
C910        C  0.31580659  0.80796688  0.51287716     0.36900
N911        N  0.13680452  0.88796816  0.51168635    -0.43350
N912        N  0.34725995  0.79765441  0.51523471    -0.43340
C913        C  0.38932092  0.28344865  0.28522173     0.00240
C914        C  0.38910298  0.25517356  0.25633852    -0.11630
C915        C  0.42385767  0.24202668  0.23984084     0.02480
C916        C  0.46051765  0.25653969  0.25307810     0.00160
C917        C  0.45912276  0.28826778  0.27914718    -0.11570
C918        C  0.42459389  0.30062360  0.29593928     0.02360
H919        H  0.36161324  0.24322384  0.24671673     0.15340
H920        H  0.48467232  0.30481911  0.28654623     0.15350
C921        C  0.42605101  0.33149041  0.32408417     0.37000
C922        C  0.42046576  0.21309440  0.20988842     0.36900
N923        N  0.42717081  0.35608341  0.34672584    -0.43350
N924        N  0.41720100  0.18997569  0.18589535    -0.43340
C925        C  0.59484232  0.30299847  0.30011428     0.00240
C926        C  0.59392750  0.30346340  0.25983915    -0.11630
C927        C  0.56504778  0.28435071  0.23875353     0.02480
C928        C  0.53513007  0.26277477  0.25791097     0.00160
C929        C  0.53781516  0.26080570  0.29864685    -0.11570
C930        C  0.56568588  0.28171657  0.31963247     0.02360
H931        H  0.61708202  0.31802387  0.24420733     0.15340
H932        H  0.51621931  0.24423679  0.31452112     0.15350
C933        C  0.56209482  0.28215678  0.36112477     0.37000
C934        C  0.57079191  0.28588869  0.19778633     0.36900
N935        N  0.55910326  0.28240130  0.39437816    -0.43350
N936        N  0.57734263  0.28834085  0.16519377    -0.43340
C937        C  0.46277810  0.74216222  0.26293836     0.00240
C938        C  0.46000046  0.70156963  0.26191391    -0.11630
C939        C  0.42862610  0.68114729  0.27812139     0.02480
C940        C  0.39747687  0.70089832  0.29507073     0.00160
C941        C  0.39960663  0.74090995  0.29643267    -0.11570
C942        C  0.43198237  0.76150914  0.28272807     0.02360
H943        H  0.48316712  0.68547504  0.24851084     0.15340
H944        H  0.37605139  0.75648188  0.30986034     0.15350
C945        C  0.43277513  0.80136409  0.29412922     0.37000
C946        C  0.43041157  0.63997179  0.27869284     0.36900
N947        N  0.43244341  0.83299810  0.30438130    -0.43350
N948        N  0.43197190  0.60697669  0.27920256    -0.43340
C949        C  0.53507797  0.74051702  0.26520629     0.00240
C950        C  0.56403470  0.72171544  0.24315353    -0.11630
C951        C  0.59600254  0.70534728  0.25990190     0.02480
C952        C  0.59756638  0.70175796  0.30019409     0.00160
C953        C  0.56743458  0.71686370  0.32273924    -0.11570
C954        C  0.53702640  0.73655288  0.30613402     0.02360
H955        H  0.56307332  0.71962298  0.21223798     0.15340
H956        H  0.56798410  0.71392699  0.35379575     0.15350
C957        C  0.50949873  0.75351271  0.33260761     0.37000
C958        C  0.62770573  0.69460014  0.23464237     0.36900
N959        N  0.48822404  0.76680417  0.35480008    -0.43350
N960        N  0.65306183  0.68625569  0.21430868    -0.43340
C961        C  0.50493142  0.11612766  0.25329239     0.00240
C962        C  0.53894406  0.13634456  0.24423392    -0.11630
C963        C  0.54002703  0.17640701  0.24466570     0.02480
C964        C  0.50527288  0.19722238  0.25207090     0.00160
C965        C  0.47406347  0.17616198  0.26887882    -0.11570
C966        C  0.47300823  0.13611654  0.26792113     0.02360
H967        H  0.56452045  0.12070718  0.23564507     0.15340
H968        H  0.44917622  0.19018365  0.28106220     0.15350
C969        C  0.43784857  0.11618129  0.27967446     0.37000
C970        C  0.57618119  0.19418997  0.23263819     0.36900
N971        N  0.40958331  0.10018384  0.28869722    -0.43350
N972        N  0.60582899  0.20713957  0.22314475    -0.43340
C973        C  0.70144207  0.00545240  0.24680052     0.00240
C974        C  0.68228812  0.97804597  0.22289072    -0.11630
C975        C  0.64186717  0.97724613  0.21935455     0.02480
C976        C  0.61967794  0.00478882  0.23892907     0.00160
C977        C  0.63821848  0.03434155  0.25905519    -0.11570
C978        C  0.67827504  0.03555050  0.26274877     0.02360
H979        H  0.69828528  0.95645513  0.20735015     0.15340
H980        H  0.62096004  0.05615382  0.27321075     0.15350
C981        C  0.69328025  0.06623568  0.28693779     0.37000
C982        C  0.62367585  0.94643021  0.19764811     0.36900
N983        N  0.70367767  0.09111791  0.30684112    -0.43350
N984        N  0.60905225  0.92163982  0.18042618    -0.43340
C985        C  0.38759094  0.99746406  0.25149542     0.00240
C986        C  0.36589560  0.99233401  0.21776221    -0.11630
C987        C  0.32516213  0.99104780  0.21892007     0.02480
C988        C  0.30466594  0.99707713  0.25446479     0.00160
C989        C  0.32764109  0.99550305  0.28809142    -0.11570
C990        C  0.36774941  0.99838965  0.28706202     0.02360
H991        H  0.38078058  0.98901355  0.19025192     0.15340
H992        H  0.31524683  0.99173449  0.31640455     0.15350
C993        C  0.38719144  0.00334176  0.32352706     0.37000
C994        C  0.30571963  0.98283345  0.18301685     0.36900
N995        N  0.40245652  0.00773044  0.35278801    -0.43350
N996        N  0.29065211  0.97617950  0.15403052    -0.43340
C997        C  0.50265213  0.88710224  0.24302803     0.00240
C998        C  0.52906489  0.86890888  0.26630937    -0.11630
C999        C  0.52988135  0.82905860  0.26891532     0.02480
C1000       C  0.50174638  0.80570786  0.24903167     0.00160
C1001       C  0.47471894  0.82527385  0.22616054    -0.11570
C1002       C  0.47530660  0.86500301  0.22265154     0.02360
H1003       H  0.55043357  0.88622636  0.28169622     0.15340
H1004       H  0.45274796  0.80902028  0.21057949     0.15350
C1005       C  0.44652372  0.88236948  0.19914489     0.37000
C1006       C  0.56241947  0.81515993  0.28973012     0.36900
N1007       N  0.42345761  0.89627799  0.18031040    -0.43350
N1008       N  0.58947281  0.80599747  0.30631414    -0.43340
C1009       C  0.46618393  0.26081481  0.73597520     0.00240
C1010       C  0.42855776  0.24337216  0.73533804    -0.11630
C1011       C  0.39618664  0.26142302  0.72078832     0.02480
C1012       C  0.40020206  0.29719695  0.70360586     0.00160
C1013       C  0.43571622  0.31676832  0.70646299    -0.11570
C1014       C  0.46765972  0.30019668  0.72411436     0.02360
H1015       H  0.42236272  0.21583176  0.74611057     0.15340
H1016       H  0.43815379  0.34573386  0.69584602     0.15350
C1017       C  0.50006951  0.32598863  0.73127544     0.37000
C1018       C  0.35835401  0.24367743  0.72630699     0.36900
N1019       N  0.52562692  0.34726841  0.73651310    -0.43350
N1020       N  0.32797554  0.23003984  0.73156572    -0.43340
C1021       C  0.54067132  0.25645206  0.73322979     0.00240
C1022       C  0.57213762  0.26834430  0.75681007    -0.11630
C1023       C  0.60596741  0.28500715  0.74163700     0.02480
C1024       C  0.60912842  0.29223636  0.70195667     0.00160
C1025       C  0.57843175  0.28104632  0.67795783    -0.11570
C1026       C  0.54482435  0.26314195  0.69280106     0.02360
H1027       H  0.57139200  0.26491349  0.78760469     0.15340
H1028       H  0.58071428  0.28630041  0.64728565     0.15350
C1029       C  0.51578781  0.25055719  0.66552129     0.37000
C1030       C  0.63753044  0.29328273  0.76761191     0.36900
N1031       N  0.49268247  0.24029121  0.64364395    -0.43350
N1032       N  0.66269109  0.29984142  0.78853343    -0.43340
C1033       C  0.50301545  0.24152644  0.11040891     0.00240
C1034       C  0.49236927  0.27424250  0.13169426    -0.11630
C1035       C  0.49118373  0.27453341  0.17230083     0.02480
C1036       C  0.50052935  0.24110760  0.19321793     0.00160
C1037       C  0.50759768  0.20776483  0.17051158    -0.11570
C1038       C  0.51118346  0.20821982  0.13055239     0.02360
H1039       H  0.48542240  0.30006669  0.11657459     0.15340
H1040       H  0.50996689  0.18000502  0.18278348     0.15350
C1041       C  0.52478731  0.17393701  0.11141798     0.37000
C1042       C  0.48181043  0.31026626  0.19119832     0.36900
N1043       N  0.53619539  0.14660968  0.09634168    -0.43350
N1044       N  0.47425141  0.33919815  0.20570828    -0.43340
C1045       C  0.62024832  0.24176100  0.99656148     0.00240
C1046       C  0.64274603  0.22231129  0.96916745    -0.11630
C1047       C  0.68322629  0.22130886  0.97281592     0.02480
C1048       C  0.70200704  0.24365096  0.00241390     0.00160
C1049       C  0.67785628  0.25254569  0.03401227    -0.11570
C1050       C  0.63791173  0.25479862  0.03044195     0.02360
H1051       H  0.62863648  0.20692762  0.94571135     0.15340
H1052       H  0.68976631  0.25563690  0.06217933     0.15350
C1053       C  0.61536415  0.26909005  0.06248838     0.37000
C1054       C  0.70240754  0.19179859  0.95073122     0.36900
N1055       N  0.59668856  0.28090478  0.08759783    -0.43350
N1056       N  0.71700196  0.16754280  0.93319930    -0.43340
C1057       C  0.38890613  0.24346890  0.00067255     0.00240
C1058       C  0.36649011  0.21779035  0.97855886    -0.11630
C1059       C  0.32601377  0.21996973  0.97843173     0.02480
C1060       C  0.30754325  0.25011098  0.99927819     0.00160
C1061       C  0.33037277  0.27085325  0.02632606    -0.11570
C1062       C  0.37044058  0.26840866  0.02663133     0.02360
H1063       H  0.38068829  0.19630717  0.96086886     0.15340
H1064       H  0.31732185  0.29182505  0.04516675     0.15350
C1065       C  0.39185465  0.29202816  0.05380355     0.37000
C1066       C  0.30525239  0.18933082  0.95887769     0.36900
N1067       N  0.40892310  0.31086336  0.07567243    -0.43350
N1068       N  0.28903866  0.16443224  0.94326187    -0.43340
C1069       C  0.50439358  0.24623296  0.87845072     0.00240
C1070       C  0.52387788  0.21710257  0.85909942    -0.11630
C1071       C  0.52576079  0.21525010  0.81901042     0.02480
C1072       C  0.50447400  0.24137261  0.79627874     0.00160
C1073       C  0.48612367  0.27159733  0.81648058    -0.11570
C1074       C  0.48674919  0.27467951  0.85682610     0.02360
H1075       H  0.53914043  0.19617372  0.87560296     0.15340
H1076       H  0.47155534  0.29362446  0.80118022     0.15350
C1077       C  0.46882287  0.30724995  0.87514035     0.37000
C1078       C  0.55142144  0.18678344  0.80311390     0.36900
N1079       N  0.45487291  0.33364991  0.88968271    -0.43350
N1080       N  0.57220554  0.16351946  0.79183686    -0.43340
C1081       C  0.49226310  0.11225921  0.73446547     0.00240
C1082       C  0.51901206  0.13238253  0.71189990    -0.11630
C1083       C  0.52485975  0.17188196  0.71658825     0.02480
C1084       C  0.49903026  0.19392751  0.74078230     0.00160
C1085       C  0.47145811  0.17196620  0.76251800    -0.11570
C1086       C  0.46726408  0.13237048  0.75885522     0.02360
H1087       H  0.53845544  0.11633396  0.69333249     0.15340
H1088       H  0.45452673  0.18543922  0.78521355     0.15350
C1089       C  0.43643239  0.11301986  0.77985093     0.37000
C1090       C  0.56250620  0.18451772  0.70274870     0.36900
N1091       N  0.41137502  0.09741586  0.79602773    -0.43350
N1092       N  0.59350597  0.19249365  0.69213222    -0.43340
C1093       C  0.69582725  0.99697397  0.74569929     0.00240
C1094       C  0.67704038  0.02994780  0.73233866    -0.11630
C1095       C  0.63690617  0.03185698  0.72912466     0.02480
C1096       C  0.61356303  0.99992588  0.73793045     0.00160
C1097       C  0.63093625  0.96681021  0.75076294    -0.11570
C1098       C  0.67130882  0.96442523  0.75399353     0.02360
H1099       H  0.69423069  0.05477669  0.72393883     0.15340
H1100       H  0.61267856  0.94203449  0.75721702     0.15350
C1101       C  0.68512963  0.92674997  0.76188299     0.37000
C1102       C  0.62058068  0.06742744  0.71761565     0.36900
N1103       N  0.69508390  0.89603296  0.76783422    -0.43350
N1104       N  0.60838006  0.09645416  0.70868028    -0.43340
C1105       C  0.29811477  0.00843858  0.73444920     0.00240
C1106       C  0.31755843  0.00546408  0.76985179    -0.11630
C1107       C  0.35777495  0.00052638  0.77160572     0.02480
C1108       C  0.38053254  0.99989241  0.73734794     0.00160
C1109       C  0.36220242  0.00602920  0.70255427    -0.11570
C1110       C  0.32244571  0.01171982  0.70057316     0.02360
H1111       H  0.30073310  0.00502095  0.79644408     0.15340
H1112       H  0.37951005  0.00795081  0.67628617     0.15350
C1113       C  0.31061898  0.02494595  0.66341719     0.37000
C1114       C  0.37440770  0.99574169  0.80910862     0.36900
N1115       N  0.30389757  0.03646102  0.63318752    -0.43350
N1116       N  0.38758955  0.99187968  0.83924593    -0.43340
C1117       C  0.39440862  0.70767626  0.71138186     0.00240
C1118       C  0.39157903  0.73554789  0.74022193    -0.11630
C1119       C  0.42461658  0.75198406  0.75733200     0.02480
C1120       C  0.46284461  0.74082541  0.74540598     0.00160
C1121       C  0.46425829  0.70923841  0.71911333    -0.11570
C1122       C  0.43106323  0.69432601  0.70087871     0.02360
H1123       H  0.36303650  0.74475044  0.74934500     0.15340
H1124       H  0.49098680  0.69540156  0.71197918     0.15350
C1125       C  0.43537683  0.66607172  0.67046536     0.37000
C1126       C  0.41666409  0.77986922  0.78720440     0.36900
N1127       N  0.43876783  0.64392984  0.64562216    -0.43350
N1128       N  0.40730450  0.80115962  0.81121902    -0.43340
C1129       C  0.53898180  0.74177814  0.74441204     0.00240
C1130       C  0.54461456  0.74149618  0.70383381    -0.11630
C1131       C  0.57575359  0.72322319  0.68544250     0.02480
C1132       C  0.60555534  0.70745701  0.70738373     0.00160
C1133       C  0.60180818  0.70949297  0.74758410    -0.11570
C1134       C  0.56987050  0.72614801  0.76625934     0.02360
H1135       H  0.52297631  0.75421730  0.68595678     0.15340
H1136       H  0.62524152  0.69935701  0.76498125     0.15350
C1137       C  0.57424667  0.73029128  0.80738996     0.37000
C1138       C  0.57479070  0.71952239  0.64397904     0.36900
N1139       N  0.57984007  0.73369143  0.84007894    -0.43350
N1140       N  0.57382557  0.71669698  0.61073789    -0.43340
C1141       C  0.50474323  0.80391421  0.74573536     0.00240
C1142       C  0.47499911  0.82019693  0.72385041    -0.11630
C1143       C  0.47325337  0.85975737  0.71863208     0.02480
C1144       C  0.50285475  0.88383199  0.73297536     0.00160
C1145       C  0.53564013  0.86781246  0.74842294    -0.11570
C1146       C  0.53732999  0.82847481  0.75455718     0.02360
H1147       H  0.45171757  0.80290517  0.71203542     0.15340
H1148       H  0.55922596  0.88652707  0.75786750     0.15350
C1149       C  0.57152482  0.81625144  0.77383884     0.37000
C1150       C  0.43939573  0.87524086  0.70114336     0.36900
N1151       N  0.59994193  0.80897997  0.78911967    -0.43350
N1152       N  0.41219183  0.88776504  0.68739503    -0.43340
C1153       C  0.50196589  0.74929920  0.11810166     0.00240
C1154       C  0.53141611  0.76963727  0.13670403    -0.11630
C1155       C  0.53249500  0.77214306  0.17678214     0.02480
C1156       C  0.50271383  0.75426924  0.20005188     0.00160
C1157       C  0.47265556  0.73440716  0.18001850    -0.11570
C1158       C  0.47267616  0.73109909  0.13981855     0.02360
H1159       H  0.55394101  0.78369566  0.11962288     0.15340
H1160       H  0.44775109  0.72238342  0.19479322     0.15350
C1161       C  0.44096492  0.71077704  0.12135808     0.37000
C1162       C  0.56512032  0.79343146  0.19249186     0.36900
N1163       N  0.41559236  0.69451311  0.10654460    -0.43350
N1164       N  0.59186908  0.81034862  0.20383401    -0.43340
C1165       C  0.49631144  0.75255520  0.88736971     0.00240
C1166       C  0.49696357  0.78861610  0.87086388    -0.11630
C1167       C  0.49567893  0.79340737  0.83124152     0.02480
C1168       C  0.49752348  0.76087589  0.80557897     0.00160
C1169       C  0.49307400  0.72450366  0.82276093    -0.11570
C1170       C  0.49295106  0.72003974  0.86291843     0.02360
H1171       H  0.49699645  0.81392440  0.88935001     0.15340
H1172       H  0.49184117  0.69912204  0.80446436     0.15350
C1173       C  0.49042659  0.68173894  0.87776284     0.37000
C1174       C  0.48618878  0.83184780  0.82079130     0.36900
N1175       N  0.48850636  0.65096246  0.88950818    -0.43350
N1176       N  0.47707180  0.86288790  0.81514673    -0.43340
C1177       C  0.30238384  0.74631870  0.99858943     0.00240
C1178       C  0.32164138  0.76386868  0.03037307    -0.11630
C1179       C  0.36198264  0.76481033  0.03303147     0.02480
C1180       C  0.38449788  0.74663202  0.00460901     0.00160
C1181       C  0.36653583  0.72824467  0.97363759    -0.11570
C1182       C  0.32638051  0.72801884  0.97003530     0.02360
H1183       H  0.30590872  0.77588939  0.05449088     0.15340
H1184       H  0.38419591  0.71448780  0.95158757     0.15350
C1185       C  0.31133922  0.70858075  0.93619947     0.37000
C1186       C  0.37960675  0.78299374  0.06629671     0.36900
N1187       N  0.30064000  0.69313300  0.90849345    -0.43350
N1188       N  0.39377443  0.79747597  0.09293970    -0.43340
C1189       C  0.61589257  0.75662450  0.99789946     0.00240
C1190       C  0.63601306  0.77630892  0.02671763    -0.11630
C1191       C  0.67612197  0.77231074  0.03098492     0.02480
C1192       C  0.69865072  0.75155651  0.00234636     0.00160
C1193       C  0.67649836  0.73366672  0.97276539    -0.11570
C1194       C  0.63641998  0.73557526  0.97043934     0.02360
H1195       H  0.61942040  0.79124410  0.04884516     0.15340
H1196       H  0.68889528  0.71261697  0.95452423     0.15350
C1197       C  0.61674967  0.71363605  0.94066759     0.37000
C1198       C  0.68861510  0.78258585  0.06937168     0.36900
N1199       N  0.60097976  0.69585567  0.91704758    -0.43350
N1200       N  0.69665389  0.79049703  0.10082139    -0.43340
C1201       C  0.26182624  0.45291676  0.25636948     0.00240
C1202       C  0.23540824  0.42313454  0.26713189    -0.11630
C1203       C  0.24770064  0.38846637  0.28239785     0.02480
C1204       C  0.28748669  0.38155689  0.28604763     0.00160
C1205       C  0.31390963  0.40903993  0.27186105    -0.11570
C1206       C  0.30181989  0.44340810  0.25616428     0.02360
H1207       H  0.20471557  0.42593642  0.26297196     0.15340
H1208       H  0.34469410  0.40402649  0.27371092     0.15350
C1209       C  0.33230803  0.46873571  0.24252617     0.37000
C1210       C  0.21877247  0.35977246  0.29233428     0.36900
N1211       N  0.35853051  0.48738634  0.23264129    -0.43350
N1212       N  0.19557631  0.33679398  0.30032096    -0.43340
C1213       C  0.29283475  0.59874883  0.29549347     0.00240
C1214       C  0.30140634  0.56395748  0.31217352    -0.11630
C1215       C  0.28657249  0.52920452  0.29745924     0.02480
C1216       C  0.26374069  0.52855367  0.26322235     0.00160
C1217       C  0.25249960  0.56471786  0.24941159    -0.11570
C1218       C  0.26720118  0.59922543  0.26464424     0.02360
H1219       H  0.31959220  0.56409247  0.33744985     0.15340
H1220       H  0.23372907  0.56613280  0.22479412     0.15350
C1221       C  0.25612692  0.63475915  0.24772490     0.37000
C1222       C  0.29376051  0.49646643  0.32088869     0.36900
N1223       N  0.24727274  0.66325725  0.23419154    -0.43350
N1224       N  0.29999970  0.47115851  0.34085361    -0.43340
C1225       C  0.73929316  0.46815667  0.26294085     0.00240
C1226       C  0.72066810  0.43885367  0.24080074    -0.11630
C1227       C  0.70320677  0.40659996  0.25746967     0.02480
C1228       C  0.70030126  0.40378367  0.29781660     0.00160
C1229       C  0.71617037  0.43341292  0.32051744    -0.11570
C1230       C  0.73519880  0.46512151  0.30397693     0.02360
H1231       H  0.71926628  0.44005792  0.20987226     0.15340
H1232       H  0.71355171  0.43184283  0.35164332     0.15350
C1233       C  0.75009652  0.49374565  0.33066465     0.37000
C1234       C  0.69038289  0.37594992  0.23201131     0.36900
N1235       N  0.76187573  0.51598586  0.35280956    -0.43350
N1236       N  0.68062555  0.35154407  0.21123557    -0.43340
C1237       C  0.69804099  0.59986707  0.29981145     0.00240
C1238       C  0.73847179  0.60099466  0.29777635    -0.11630
C1239       C  0.75966230  0.57127742  0.28114266     0.02480
C1240       C  0.74036182  0.54011352  0.26135841     0.00160
C1241       C  0.69928510  0.54021475  0.26257049    -0.11570
C1242       C  0.67838678  0.56847876  0.28236434     0.02360
H1243       H  0.75409687  0.62503743  0.31073371     0.15340
H1244       H  0.68320495  0.51679102  0.24908022     0.15350
C1245       C  0.63701007  0.56294679  0.28617068     0.37000
C1246       C  0.80032930  0.57356792  0.28971560     0.36900
N1247       N  0.60385525  0.55835756  0.28920598    -0.43350
N1248       N  0.83254937  0.57649057  0.29811173    -0.43340
C1249       C  0.11960811  0.50192458  0.24791911     0.00240
C1250       C  0.14044415  0.49396872  0.28115163    -0.11630
C1251       C  0.18105448  0.49264997  0.28047991     0.02480
C1252       C  0.20214862  0.49670875  0.24505558     0.00160
C1253       C  0.18063657  0.50965978  0.21334447    -0.11570
C1254       C  0.14043481  0.51181206  0.21426106     0.02360
H1255       H  0.12492274  0.48838434  0.30791769     0.15340
H1256       H  0.19495466  0.51935418  0.18727706     0.15350
C1257       C  0.12177917  0.52574895  0.18032640     0.37000
C1258       C  0.19929934  0.48613983  0.31685135     0.36900
N1259       N  0.10703903  0.53706606  0.15313308    -0.43350
N1260       N  0.21201432  0.48063165  0.34688355    -0.43340
C1261       C  0.00050613  0.61232188  0.25228261     0.00240
C1262       C  0.03031255  0.63300240  0.23427714    -0.11630
C1263       C  0.03207515  0.67305654  0.23607815     0.02480
C1264       C  0.00061117  0.69409811  0.25295596     0.00160
C1265       C  0.97038675  0.67188732  0.27040243    -0.11570
C1266       C  0.97059362  0.63197647  0.27094304     0.02360
H1267       H  0.05400810  0.61746060  0.22100883     0.15340
H1268       H  0.94681875  0.68614363  0.28521123     0.15350
C1269       C  0.93999136  0.61176760  0.29131559     0.37000
C1270       C  0.06907821  0.68925529  0.22448419     0.36900
N1271       N  0.91586650  0.59539429  0.30805116    -0.43350
N1272       N  0.09949944  0.70057680  0.21532358    -0.43340
C1273       C  0.01091041  0.30152613  0.24919024     0.00240
C1274       C  0.97919028  0.32105520  0.26611106    -0.11630
C1275       C  0.97533965  0.36043748  0.26411306     0.02480
C1276       C  0.00458738  0.38284213  0.24696476     0.00160
C1277       C  0.03630755  0.36481522  0.22979051    -0.11570
C1278       C  0.04009059  0.32483753  0.23058591     0.02360
H1279       H  0.95614406  0.30481116  0.28025388     0.15340
H1280       H  0.05902528  0.38236006  0.21668503     0.15350
C1281       C  0.07595592  0.31089456  0.21467334     0.37000
C1282       C  0.93938467  0.37638900  0.27721254     0.36900
N1283       N  0.10540685  0.30123669  0.20204455    -0.43350
N1284       N  0.90950230  0.38754049  0.28680369    -0.43340
C1285       C  0.88693902  0.50011207  0.25228300     0.00240
C1286       C  0.86995100  0.52345213  0.22525246    -0.11630
C1287       C  0.82989282  0.52767997  0.22436523     0.02480
C1288       C  0.80478621  0.50447802  0.24808807     0.00160
C1289       C  0.82291265  0.48076375  0.27490109    -0.11570
C1290       C  0.86305053  0.48106585  0.27924000     0.02360
H1291       H  0.88830147  0.54012321  0.20589979     0.15340
H1292       H  0.80660518  0.46188538  0.29337354     0.15350
C1293       C  0.87849470  0.46292927  0.31263005     0.37000
C1294       C  0.81612684  0.55764721  0.20009996     0.36900
N1295       N  0.89040936  0.44938142  0.34016573    -0.43350
N1296       N  0.80588339  0.58210891  0.18086096    -0.43340
C1297       C  0.99591691  0.69683067  0.75027402     0.00240
C1298       C  0.01905517  0.67733351  0.77644359    -0.11630
C1299       C  0.01677373  0.63758523  0.77960930     0.02480
C1300       C  0.99622999  0.61544566  0.75197634     0.00160
C1301       C  0.97314362  0.63394345  0.72582246    -0.11570
C1302       C  0.97060548  0.67370619  0.72645507     0.02360
H1303       H  0.03866635  0.69241090  0.79534954     0.15340
H1304       H  0.95517557  0.61710175  0.70626164     0.15350
C1305       C  0.94021365  0.68936934  0.70358698     0.37000
C1306       C  0.03454055  0.62077037  0.81258257     0.36900
N1307       N  0.91538874  0.70118622  0.68546651    -0.43350
N1308       N  0.04815293  0.60757148  0.83948471    -0.43340
C1309       C  0.00251708  0.38639883  0.75699779     0.00240
C1310       C  0.96988883  0.36675939  0.77139849    -0.11630
C1311       C  0.96902159  0.32672576  0.77386115     0.02480
C1312       C  0.00019218  0.30528883  0.75773523     0.00160
C1313       C  0.03499341  0.32613210  0.74969265    -0.11570
C1314       C  0.03634637  0.36599566  0.74957108     0.02360
H1315       H  0.94520760  0.38292735  0.78153246     0.15340
H1316       H  0.06062824  0.31131199  0.74000315     0.15350
C1317       C  0.07316091  0.38484177  0.74266224     0.37000
C1318       C  0.93773712  0.31036673  0.79650015     0.36900
N1319       N  0.10357591  0.39853486  0.73818034    -0.43350
N1320       N  0.91259033  0.29845134  0.81547475    -0.43340
C1321       C  0.73602319  0.46913620  0.73996026     0.00240
C1322       C  0.76007753  0.43827628  0.72913208    -0.11630
C1323       C  0.74527454  0.40442004  0.71257532     0.02480
C1324       C  0.70576513  0.40093133  0.70367207     0.00160
C1325       C  0.68106412  0.42988533  0.71629421    -0.11570
C1326       C  0.69527855  0.46243171  0.73600706     0.02360
H1327       H  0.79043810  0.43870190  0.73610415     0.15340
H1328       H  0.65019762  0.42662156  0.71159533     0.15350
C1329       C  0.66675455  0.48808238  0.75174788     0.37000
C1330       C  0.77030465  0.37194188  0.71005951     0.36900
N1331       N  0.64295259  0.50787405  0.76382790    -0.43350
N1332       N  0.79030991  0.34584000  0.70972216    -0.43340
C1333       C  0.74195132  0.54399258  0.74084053     0.00240
C1334       C  0.71867983  0.54332269  0.70744327    -0.11630
C1335       C  0.70338006  0.57651514  0.69243621     0.02480
C1336       C  0.71324932  0.61228234  0.70860114     0.00160
C1337       C  0.74070105  0.61433994  0.73784717    -0.11570
C1338       C  0.75553581  0.58093307  0.75367486     0.02360
H1339       H  0.71180196  0.51698382  0.69231546     0.15340
H1340       H  0.74983936  0.64214590  0.74904164     0.15350
C1341       C  0.78279307  0.58609041  0.78459173     0.37000
C1342       C  0.67733800  0.57315685  0.66027051     0.36900
N1343       N  0.80449609  0.59103187  0.80937294    -0.43350
N1344       N  0.65639566  0.57055184  0.63458361    -0.43340
C1345       C  0.79908534  0.50547840  0.76042241     0.00240
C1346       C  0.82077219  0.50424474  0.79496316    -0.11630
C1347       C  0.86100479  0.50029418  0.79498060     0.02480
C1348       C  0.88203846  0.50015511  0.75998924     0.00160
C1349       C  0.86140317  0.50373107  0.72556490    -0.11570
C1350       C  0.82094393  0.50642325  0.72534647     0.02360
H1351       H  0.80705039  0.50698548  0.82291094     0.15340
H1352       H  0.87695020  0.50436918  0.69822915     0.15350
C1353       C  0.80292296  0.50902238  0.68819011     0.37000
C1354       C  0.87951585  0.49581927  0.83166926     0.36900
N1355       N  0.78908694  0.51096156  0.65811639    -0.43350
N1356       N  0.89409401  0.49184911  0.86112798    -0.43340
C1357       C  0.75202056  0.50219208  0.11532503     0.00240
C1358       C  0.77348715  0.47489107  0.13401684    -0.11630
C1359       C  0.77437037  0.47353984  0.17433202     0.02480
C1360       C  0.75421117  0.50111711  0.19774607     0.00160
C1361       C  0.73247307  0.52835648  0.17788817    -0.10850
C1362       C  0.73092837  0.52872012  0.13755870     0.02360
H1363       H  0.78906306  0.45386791  0.11694007     0.15340
H1364       H  0.71765432  0.55091400  0.19307282     0.15350
C1365       C  0.70886506  0.55805287  0.11960629     0.37000
C1366       C  0.79644855  0.44315262  0.19056662     0.36900
N1367       N  0.69116051  0.58162431  0.10541250    -0.43350
N1368       N  0.81405682  0.41864023  0.20323335    -0.43340
C1369       C  0.73398070  0.49682824  0.88480614     0.00240
C1370       C  0.71973543  0.52895775  0.86672340    -0.11630
C1371       C  0.71941134  0.53120894  0.82638076     0.02480
C1372       C  0.73802637  0.50243740  0.80354560     0.00160
C1373       C  0.74576450  0.46776147  0.82244678    -0.11570
C1374       C  0.74325866  0.46470788  0.86234524     0.02360
H1375       H  0.70852798  0.55226647  0.88424910     0.15340
H1376       H  0.75673361  0.44349836  0.80634844     0.15350
C1377       C  0.74827630  0.42774480  0.87906479     0.37000
C1378       C  0.69673219  0.56137311  0.81092434     0.36900
N1379       N  0.75067885  0.39729415  0.89115072    -0.43350
N1380       N  0.67766825  0.58552561  0.79969075    -0.43340
C1381       C  0.74603013  0.61418188  0.99964496     0.00240
C1382       C  0.71575689  0.63244024  0.01885264    -0.11630
C1383       C  0.71536643  0.67212190  0.02324983     0.02480
C1384       C  0.74430540  0.69569297  0.00472486     0.00160
C1385       C  0.77593918  0.67667211  0.98734878    -0.11570
C1386       C  0.77687797  0.63667731  0.98440918     0.02360
H1387       H  0.69301274  0.61535622  0.03246701     0.15340
H1388       H  0.80023060  0.69301707  0.97570356     0.15350
C1389       C  0.80956675  0.61978562  0.96480067     0.37000
C1390       C  0.68694042  0.68628998  0.05047511     0.36900
N1391       N  0.83584621  0.60639944  0.94908158    -0.43350
N1392       N  0.66386205  0.69583455  0.07288007    -0.43340
C1393       C  0.74805107  0.30274714  0.00501411     0.00240
C1394       C  0.77298787  0.32339418  0.97944653    -0.11630
C1395       C  0.77371579  0.36333226  0.97812428     0.02480
C1396       C  0.74693373  0.38430576  0.00035702     0.00160
C1397       C  0.72457141  0.36511263  0.02787733    -0.11570
C1398       C  0.72866812  0.32590565  0.03346002     0.02360
H1399       H  0.79414149  0.30881424  0.96172248     0.15340
H1400       H  0.70789301  0.38175781  0.04859561     0.15350
C1401       C  0.72275776  0.31467909  0.07295425     0.37000
C1402       C  0.80344514  0.38177484  0.95488010     0.36900
N1403       N  0.71861431  0.30715746  0.10515144    -0.43350
N1404       N  0.82758625  0.39636485  0.93652737    -0.43340
C1405       C  0.26052897  0.46102155  0.73998730     0.00240
C1406       C  0.29584443  0.46478484  0.71873951    -0.11630
C1407       C  0.31395463  0.43334919  0.70135398     0.02480
C1408       C  0.29859682  0.39634834  0.70655273     0.00160
C1409       C  0.26692888  0.39128732  0.73141196    -0.11570
C1410       C  0.24857547  0.42264202  0.74893976     0.02360
H1411       H  0.31002016  0.49229794  0.71509750     0.15340
H1412       H  0.25630788  0.36246045  0.73702907     0.15350
C1413       C  0.21691892  0.41304811  0.77466633     0.37000
C1414       C  0.34810530  0.43980595  0.67771754     0.36900
N1415       N  0.19222497  0.40221255  0.79479683    -0.43350
N1416       N  0.37543569  0.44485672  0.65869862    -0.43340
C1417       C  0.25823076  0.53580823  0.73950433     0.00240
C1418       C  0.26920773  0.56638755  0.76476181    -0.11630
C1419       C  0.28387359  0.60154759  0.75127029     0.02480
C1420       C  0.28830977  0.60776728  0.71137200     0.00160
C1421       C  0.27620868  0.57866818  0.68592581    -0.11570
C1422       C  0.26066100  0.54380277  0.69915161     0.02360
H1423       H  0.26436329  0.56444730  0.79545022     0.15340
H1424       H  0.27908964  0.58311228  0.65514228     0.15350
C1425       C  0.24801230  0.51703922  0.66966419     0.37000
C1426       C  0.29188181  0.63161539  0.77920441     0.36900
N1427       N  0.23889547  0.49669178  0.64466776    -0.43350
N1428       N  0.29823320  0.65565776  0.80163470    -0.43340
C1429       C  0.19583338  0.50110769  0.74224010     0.00240
C1430       C  0.17666627  0.53425313  0.75589258    -0.11630
C1431       C  0.13674945  0.53778438  0.75366846     0.02480
C1432       C  0.11444482  0.50812302  0.73727514     0.00160
C1433       C  0.13331175  0.47926991  0.71655445    -0.11570
C1434       C  0.17363679  0.47534097  0.71847694     0.02360
H1435       H  0.19250490  0.55639914  0.77151898     0.15340
H1436       H  0.11623089  0.45900681  0.69967168     0.15350
C1437       C  0.18970975  0.44550087  0.69452504     0.37000
C1438       C  0.12008692  0.57291198  0.76712025     0.36900
N1439       N  0.20130459  0.42145702  0.67450979    -0.43350
N1440       N  0.10868732  0.60233746  0.77689292    -0.43340
C1441       C  0.25887031  0.49294936  0.11477572     0.00240
C1442       C  0.28287598  0.51789703  0.13588477    -0.11630
C1443       C  0.28342416  0.51741361  0.17634218     0.02480
C1444       C  0.25878585  0.49107135  0.19698979     0.00160
C1445       C  0.23982072  0.46222873  0.17454235    -0.11570
C1446       C  0.23843306  0.46385867  0.13432621     0.02360
H1447       H  0.30075966  0.53864724  0.12057726     0.15340
H1448       H  0.22249801  0.44030850  0.18878496     0.15350
C1449       C  0.21557190  0.43535279  0.11387540     0.37000
C1450       C  0.31087225  0.54367565  0.19400088     0.36900
N1451       N  0.19715770  0.41242260  0.09770637    -0.43350
N1452       N  0.33333434  0.56506429  0.20699878    -0.43340
C1453       C  0.25181149  0.61541125  0.00216058     0.00240
C1454       C  0.23159407  0.63322521  0.97305590    -0.11630
C1455       C  0.23186565  0.67316393  0.96967241     0.02480
C1456       C  0.25108835  0.69676534  0.99790990     0.00160
C1457       C  0.27050756  0.67739396  0.02763558    -0.11570
C1458       C  0.27148590  0.63774384  0.02957104     0.02360
H1459       H  0.21711728  0.61552148  0.95146044     0.15340
H1460       H  0.28566965  0.69376164  0.04972727     0.15350
C1461       C  0.29254840  0.62075221  0.06039590     0.37000
C1462       C  0.21512373  0.68679762  0.93476376     0.36900
N1463       N  0.30959411  0.60743898  0.08513868    -0.43350
N1464       N  0.20188351  0.69597027  0.90594516    -0.43340
C1465       C  0.26158299  0.30591125  0.99089827     0.00240
C1466       C  0.22545024  0.32298008  0.99781007    -0.11630
C1467       C  0.22158897  0.36269886  0.99850319     0.02480
C1468       C  0.25423429  0.38654480  0.99089543     0.00160
C1469       C  0.28849438  0.36978689  0.97821791    -0.11570
C1470       C  0.29202196  0.33026437  0.97621473     0.02360
H1471       H  0.20060161  0.30538247  0.00564116     0.15340
H1472       H  0.31269768  0.38778650  0.96886255     0.15350
C1473       C  0.32623729  0.31703486  0.95612356     0.37000
C1474       C  0.18413987  0.37768435  0.00863580     0.36900
N1475       N  0.35373146  0.30737742  0.93957716    -0.43350
N1476       N  0.15400038  0.38944974  0.01667426    -0.43340
C1477       C  0.24993558  0.50032761  0.88279938     0.00240
C1478       C  0.21344326  0.49500554  0.86661451    -0.11630
C1479       C  0.20828114  0.49120530  0.82692576     0.02480
C1480       C  0.24059405  0.49552820  0.80064266     0.00160
C1481       C  0.27766100  0.49777082  0.81761304    -0.11570
C1482       C  0.28257018  0.50078497  0.85775156     0.02360
H1483       H  0.18822919  0.49235030  0.88545573     0.15340
H1484       H  0.30312840  0.49904963  0.79905166     0.15350
C1485       C  0.32149840  0.50482611  0.87200419     0.37000
C1486       C  0.16954574  0.47888660  0.81675609     0.36900
N1487       N  0.35277758  0.50807691  0.88327731    -0.43350
N1488       N  0.13822227  0.46815849  0.81092839    -0.43340
loop_ 
_geom_bond_atom_site_label_1 
_geom_bond_atom_site_label_2 
_geom_bond_distance 
_geom_bond_site_symmetry_2 
_ccdc_geom_bond_type 
O1            V9   1.885   1_556  S
O1           C11   1.259       .  A
O2            V9   1.891       .  S
O2           C12   1.261       .  A
O3            V9   1.899   1_556  S
O3           C13   1.268       .  A
O4            V9   1.908       .  S
O4           C14   1.267       .  A
O5           V10   1.899   1_554  S
O5           C14   1.263       .  A
O6           V10   1.902       .  S
O6           C13   1.263       .  A
O7           V10   1.899   1_554  S
O7           C12   1.265       .  A
O8           V10   1.895       .  S
O8           C11   1.267       .  A
V9           V10   2.086   1_554  T
C11        C1468   1.478       .  S
C12        C1453   1.467       .  S
C13        C1477   1.494       .  S
C14        C1441   1.481       .  S
C15        C1405   1.578       .  S
C15        C1417   1.588       .  S
C15        C1429   1.562       .  S
C15        C1480   1.581       .  S
O16          V24   1.890       .  S
O16          C26   1.260       .  A
O17          V24   1.891   1_556  S
O17          C27   1.259       .  A
O18          V24   1.909       .  S
O18          C28   1.268   1_554  A
O19          V24   1.904       .  S
O19          C29   1.268   1_554  A
O20          V25   1.891       .  S
O20          C29   1.261       .  A
O21          V25   1.883       .  S
O21          C28   1.259       .  A
O22          V25   1.906       .  S
O22          C27   1.267       .  A
O23          V25   1.914   1_554  S
O23          C26   1.269       .  A
V24          V25   2.088   1_554  T
C26        C1357   1.479       .  S
C27        C1369   1.467       .  S
C28        C1396   1.476   1_556  S
C29        C1381   1.483       .  S
C30        C1321   1.579       .  S
C30        C1333   1.575       .  S
C30        C1345   1.581       .  S
C30        C1372   1.569       .  S
O31          V39   1.887       .  S
O31          C41   1.261       .  A
O32          V39   1.889   1_455  S
O32          C42   1.258       .  A
O33          V39   1.916       .  S
O33          C43   1.269   1_655  A
O34          V39   1.914       .  S
O34          C44   1.271       .  A
O35          V40   1.874   1_655  S
O35          C44   1.255       .  A
O36          V40   1.887       .  S
O36          C43   1.257       .  A
O37          V40   1.913       .  S
O37          C42   1.270       .  A
O38          V40   1.916   1_655  S
O38          C41   1.271       .  A
V39          V40   2.087   1_655  T
C41        C1348   1.495       .  S
C42        C1432   1.474       .  S
C43        C1309   1.471       .  S
C44        C1300   1.476       .  S
O45          V53   1.894       .  S
O45          C55   1.262       .  A
O46          V53   1.900       .  S
O46          C56   1.263       .  A
O47          V53   1.895   1_655  S
O47          C57   1.265       .  A
O48          V53   1.890       .  S
O48          C58   1.263       .  A
O49          V54   1.903       .  S
O49          C58   1.265       .  A
O50          V54   1.894   1_655  S
O50          C57   1.262       .  A
O51          V54   1.904       .  S
O51          C56   1.266       .  A
O52          V54   1.903       .  S
O52          C55   1.265       .  A
V53          V54   2.087       .  T
C55        C1261   1.472       .  S
C56        C1276   1.475       .  S
C57        C1285   1.475       .  S
C58        C1249   1.486       .  S
C59        C1225   1.585       .  S
C59        C1240   1.578       .  S
C59        C1288   1.566       .  S
C59        C1360   1.581       .  S
C60        C1201   1.576       .  S
C60        C1216   1.569       .  S
C60        C1252   1.581       .  S
C60        C1444   1.578       .  S
O61          V69   1.894   1_556  S
O61          C71   1.261       .  A
O62          V69   1.895       .  S
O62          C72   1.262       .  A
O63          V69   1.897       .  S
O63          C73   1.264       .  A
O64          V69   1.899       .  S
O64          C74   1.266   1_554  A
O65          V70   1.891       .  S
O65          C74   1.259   1_554  A
O66          V70   1.889       .  S
O66          C73   1.260       .  A
O67          V70   1.889       .  S
O67          C72   1.262       .  A
O68          V70   1.890   1_556  S
O68          C71   1.267       .  A
V69          V70   2.088       .  T
C71        C1165   1.483       .  S
C72        C1153   1.463       .  S
C73        C1180   1.464       .  S
C74        C1189   1.468       .  S
C75        C1120   1.593       .  S
C75        C1129   1.589       .  S
C75        C1141   1.569       .  S
C75        C1168   1.565       .  S
O76          V84   1.887   1_545  S
O76          C86   1.259       .  A
O77          V84   1.891       .  S
O77          C87   1.259       .  A
O78          V84   1.908       .  S
O78          C88   1.271       .  A
O79          V84   1.916       .  S
O79          C89   1.269   1_565  A
O80          V85   1.890   1_545  S
O80          C89   1.260       .  A
O81          V85   1.891       .  S
O81          C88   1.259       .  A
O82          V85   1.902       .  S
O82          C87   1.267       .  A
O83          V85   1.902   1_545  S
O83          C86   1.267       .  A
V84          V85   2.086       .  T
C86        C1081   1.470       .  S
C87        C1144   1.468       .  S
C88        C1108   1.493       .  S
C89        C1096   1.474   1_545  S
O90          V98   1.892       .  S
O90         C100   1.260       .  A
O91          V98   1.889       .  S
O91         C101   1.260       .  A
O92          V98   1.893       .  S
O92         C102   1.265       .  A
O93          V98   1.898   1_554  S
O93         C103   1.267       .  A
O94          V99   1.897   1_554  S
O94         C103   1.262       .  A
O95          V99   1.898       .  S
O95         C102   1.263       .  A
O96          V99   1.894       .  S
O96         C101   1.265       .  A
O97          V99   1.902       .  S
O97         C100   1.266       .  A
V98          V99   2.088       .  T
C100       C1045   1.469       .  S
C101       C1057   1.467   1_556  S
C102       C1069   1.477       .  S
C103       C1033   1.487       .  S
C104       C1009   1.604       .  S
C104       C1021   1.568       .  S
C104       C1072   1.573       .  S
C104       C1084   1.589       .  S
O105        V113   1.897       .  S
O105        C115   1.263   1_545  A
O106        V113   1.897   1_565  S
O106        C116   1.262   1_565  A
O107        V113   1.909   1_565  S
O107        C117   1.268       .  A
O108        V113   1.913       .  S
O108        C118   1.269       .  A
O109        V114   1.886       .  S
O109        C118   1.258       .  A
O110        V114   1.882   1_565  S
O110        C117   1.260       .  A
O111        V114   1.894       .  S
O111        C116   1.265       .  A
O112        V114   1.890   1_565  S
O112        C115   1.265       .  A
V113        V114   2.083       .  T
C115        C985   1.484       .  S
C116        C976   1.468       .  S
C117        C997   1.473       .  S
C118        C961   1.471       .  S
C119        C937   1.579       .  S
C119        C949   1.574       .  S
C119       C1000   1.569       .  S
C119       C1156   1.579       .  S
C120        C916   1.585       .  S
C120        C928   1.576       .  S
C120        C964   1.580       .  S
C120       C1036   1.580       .  S
O121        V129   1.884   1_545  S
O121        C131   1.257   1_545  A
O122        V129   1.883       .  S
O122        C132   1.258       .  A
O123        V129   1.905       .  S
O123        C133   1.268       .  A
O124        V129   1.903   1_545  S
O124        C134   1.270       .  A
O125        V130   1.898   1_545  S
O125        C134   1.262       .  A
O126        V130   1.896       .  S
O126        C133   1.263       .  A
O127        V130   1.907       .  S
O127        C132   1.267       .  A
O128        V130   1.902       .  S
O128        C131   1.268       .  A
V129        V130   2.083       .  T
C131        C880   1.464       .  S
C132        C892   1.467       .  S
C133        C901   1.493       .  S
C134        C868   1.492       .  S
C135        C829   1.567       .  S
C135        C841   1.586       .  S
C135        C853   1.580       .  S
C135        C904   1.580       .  S
O136        V144   1.896   1_565  S
O136        C146   1.262       .  A
O137        V144   1.897       .  S
O137        C147   1.264       .  A
O138        V144   1.888       .  S
O138        C148   1.264   1_545  A
O139        V144   1.891   1_565  S
O139        C149   1.263   1_565  A
O140        V145   1.896       .  S
O140        C149   1.263       .  A
O141        V145   1.896   1_565  S
O141        C148   1.264       .  A
O142        V145   1.893       .  S
O142        C147   1.263       .  A
O143        V145   1.891   1_565  S
O143        C146   1.264       .  A
V144        V145   2.083       .  T
C146        C796   1.465       .  S
C147        C781   1.468       .  S
C148        C817   1.480       .  S
C149        C805   1.463       .  S
C150        C745   1.574       .  S
C150        C757   1.598       .  S
C150        C772   1.594       .  S
C150        C793   1.552       .  S
O151        V159   1.899       .  S
O151        C161   1.261       .  A
O152        V159   1.902   1_655  S
O152        C162   1.263       .  A
O153        V159   1.909       .  S
O153        C163   1.267       .  A
O154        V159   1.902   1_655  S
O154        C164   1.266   1_655  A
O155        V160   1.888       .  S
O155        C164   1.259       .  A
O156        V160   1.884       .  S
O156        C163   1.259       .  A
O157        V160   1.892   1_655  S
O157        C162   1.266       .  A
O158        V160   1.898       .  S
O158        C161   1.266       .  A
V159        V160   2.088       .  T
C161        C856   1.472       .  S
C162        C769   1.489       .  S
C163        C733   1.467       .  S
C164        C724   1.467       .  S
O165        V173   1.896       .  S
O165        C175   1.262       .  A
O166        V173   1.891       .  S
O166        C176   1.261   1_455  A
O167        V173   1.897   1_655  S
O167        C177   1.264       .  A
O168        V173   1.898       .  S
O168        C178   1.266       .  A
O169        V174   1.894   1_455  S
O169        C178   1.259       .  A
O170        V174   1.890       .  S
O170        C177   1.261       .  A
O171        V174   1.899       .  S
O171        C176   1.267       .  A
O172        V174   1.900   1_455  S
O172        C175   1.265       .  A
V173        V174   2.088   1_455  T
C175        C697   1.470       .  S
C176        C688   1.487       .  S
C177        C709   1.465       .  S
C178        C676   1.467       .  S
C179        C649   1.566       .  S
C179        C661   1.582       .  S
C179        C712   1.574       .  S
C179        C784   1.569       .  S
C180        C625   1.590       .  S
C180        C637   1.588       .  S
C180        C673   1.567       .  S
C180        C865   1.575       .  S
C181        C604   1.585   1_455  S
C181        C613   1.565       .  S
C181        C700   1.570       .  S
C181       C1273   1.578       .  S
C182        C577   1.575   1_545  S
C182        C592   1.560       .  S
C182        C820   1.572   1_545  S
C182        C973   1.574       .  S
C183        C553   1.573       .  S
C183        C568   1.570   1_655  S
C183        C736   1.577       .  S
C183       C1264   1.579   1_655  S
C184        C529   1.573   1_545  S
C184        C544   1.574       .  S
C184        C889   1.574       .  S
C184        C988   1.589   1_545  S
C185        C508   1.581       .  S
C185        C517   1.590   1_655  S
C185        C721   1.573   1_655  S
C185       C1297   1.564       .  S
C186        C481   1.589   1_545  S
C186        C493   1.579       .  S
C186        C877   1.560       .  S
C186       C1105   1.580       .  S
C187        C457   1.575       .  S
C187        C472   1.583   1_655  S
C187        C685   1.578       .  S
C187       C1312   1.571   1_655  S
C188        C433   1.574       .  S
C188        C445   1.577   1_565  S
C188        C808   1.566   1_565  S
C188       C1093   1.579       .  S
C189        C409   1.567       .  S
C189        C421   1.564   1_556  S
C189       C1060   1.559       .  S
C189       C1465   1.559       .  S
C190        C385   1.575       .  S
C190        C397   1.578   1_556  S
C190       C1177   1.576       .  S
C190       C1456   1.575       .  S
C191        C361   1.577   1_554  S
C191        C373   1.564       .  S
C191       C1048   1.586       .  S
C191       C1393   1.588       .  S
C192        C337   1.614   1_554  S
C192        C349   1.582       .  S
C192       C1192   1.596       .  S
C192       C1384   1.564       .  S
C193        C376   1.500       .  S
C193        C194   1.410       .  A
C193        C198   1.402       .  A
C194        C195   1.407       .  A
C194        H199   1.082       .  S
C195        C601   1.500       .  S
C195        C196   1.405       .  A
C196        C197   1.405       .  A
C196        H200   1.080       .  S
C197        C589   1.489       .  S
C197        C198   1.404       .  A
C198        H201   1.082       .  S
C202        C532   1.472       .  S
C202        C203   1.398       .  A
C202        C207   1.399       .  A
C203        C204   1.404       .  A
C203        H208   1.083       .  S
C204        C565   1.497       .  S
C204        C205   1.408       .  A
C205        C206   1.410       .  A
C205        H209   1.080       .  S
C206        C400   1.496       .  S
C206        C207   1.406       .  A
C207        H210   1.084       .  S
C211        C469   1.502       .  S
C211        C212   1.410       .  A
C211        C216   1.414       .  A
C212        C213   1.401       .  A
C212        H217   1.083       .  S
C213        C412   1.476       .  S
C213        C214   1.398       .  A
C214        C215   1.397       .  A
C214        H218   1.084       .  S
C215        C496   1.481       .  S
C215        C216   1.408       .  A
C216        H219   1.083       .  S
C220        C580   1.479       .  S
C220        C221   1.401       .  A
C220        C225   1.405       .  A
C221        C222   1.404       .  A
C221        H226   1.083       .  S
C222        C352   1.493       .  S
C222        C223   1.407       .  A
C223        C224   1.407       .  A
C223        H227   1.083       .  S
C224        C556   1.500       .  S
C224        C225   1.409       .  A
C225        H228   1.083       .  S
C229        C388   1.505       .  S
C229        C230   1.411       .  A
C229        C234   1.416       .  A
C230        C231   1.405       .  A
C230        H235   1.083       .  S
C231        C520   1.500       .  S
C231        C232   1.408       .  A
C232        C233   1.404       .  A
C232        H236   1.082       .  S
C233        C484   1.500       .  S
C233        C234   1.409       .  A
C234        H237   1.081       .  S
C238        C364   1.479       .  S
C238        C239   1.398       .  A
C238        C243   1.405       .  A
C239        C240   1.399       .  A
C239        H244   1.084       .  S
C240        C460   1.476       .  S
C240        C241   1.401       .  A
C241        C242   1.411       .  A
C241        H245   1.083       .  S
C242        C448   1.502       .  S
C242        C243   1.411       .  A
C243        H246   1.082       .  S
C247        C436   1.506       .  S
C247        C248   1.416       .  A
C247        C252   1.412       .  A
C248        C249   1.405       .  A
C248        H253   1.080       .  S
C249        C505   1.502       .  S
C249        C250   1.408       .  A
C250        C251   1.400       .  A
C250        H254   1.084       .  S
C251        C340   1.486       .  S
C251        C252   1.403       .  A
C252        H255   1.082       .  S
C256        C616   1.490       .  S
C256        C257   1.407       .  A
C256        C261   1.397       .  A
C257        C258   1.418       .  A
C257        H262   1.077       .  S
C258        C541   1.526       .  S
C258        C259   1.414       .  A
C259        C260   1.402       .  A
C259        H263   1.072       .  S
C260        C424   1.479       .  S
C260        C261   1.394       .  A
C261        H264   1.083       .  S
C265        C640   1.508       .  S
C265        C266   1.412       .  A
C265        C270   1.412       .  A
C266        C267   1.407       .  A
C266        H271   1.083       .  S
C267       C1408   1.483       .  S
C267        C268   1.401       .  A
C268        C269   1.400       .  A
C268        H272   1.084       .  S
C269       C1012   1.487       .  S
C269        C270   1.410       .  A
C270        H273   1.083       .  S
C274        C925   1.500       .  S
C274        C275   1.409       .  A
C274        C279   1.403       .  A
C275        C276   1.406       .  A
C275        H280   1.083       .  S
C276       C1228   1.492       .  S
C276        C277   1.403       .  A
C277        C278   1.405       .  A
C277        H281   1.083       .  S
C278        C652   1.494       .  S
C278        C279   1.407       .  A
C279        H282   1.079       .  S
C283       C1213   1.475       .  S
C283        C284   1.403       .  A
C283        C288   1.399       .  A
C284        C285   1.406       .  A
C284        H289   1.083       .  S
C285        C940   1.496       .  S
C285        C286   1.408       .  A
C286        C287   1.406       .  A
C286        H290   1.083       .  S
C287        C832   1.494       .  S
C287        C288   1.404       .  A
C288        H291   1.082       .  S
C292       C1204   1.500       .  S
C292        C293   1.406       .  A
C292        C297   1.414       .  A
C293        C294   1.399       .  A
C293        H298   1.084       .  S
C294        C913   1.478       .  S
C294        C295   1.402       .  A
C295        C296   1.404       .  A
C295        H299   1.084       .  S
C296        C628   1.489       .  S
C296        C297   1.411       .  A
C297        H300   1.083       .  S
C301       C1420   1.499       .  S
C301        C302   1.407       .  A
C301        C306   1.413       .  A
C302        C303   1.402       .  A
C302        H307   1.083       .  S
C303       C1117   1.482       .  S
C303        C304   1.403       .  A
C304        C305   1.405       .  A
C304        H308   1.084       .  S
C305        C844   1.489       .  S
C305        C306   1.408       .  A
C306        H309   1.083       .  S
C310       C1024   1.487       .  S
C310        C311   1.402       .  A
C310        C315   1.403       .  A
C311        C312   1.400       .  A
C311        H316   1.083       .  S
C312       C1324   1.491       .  S
C312        C313   1.408       .  A
C313        C314   1.413       .  A
C313        H317   1.080       .  S
C314        C664   1.507       .  S
C314        C315   1.411       .  A
C315        H318   1.083       .  S
C319       C1237   1.499       .  S
C319        C320   1.404       .  A
C319        C324   1.411       .  A
C320        C321   1.407       .  A
C320        H325   1.080       .  S
C321        C952   1.490       .  S
C321        C322   1.404       .  A
C322        C323   1.400       .  A
C322        H326   1.084       .  S
C323        C748   1.482       .  S
C323        C324   1.402       .  A
C324        H327   1.083       .  S
C328       C1336   1.480       .  S
C328        C329   1.398       .  A
C328        C333   1.406       .  A
C329        C330   1.404       .  A
C329        H334   1.082       .  S
C330        C760   1.503       .  S
C330        C331   1.414       .  A
C331        C332   1.408       .  A
C331        H335   1.077       .  S
C332       C1132   1.510       .  S
C332        C333   1.412       .  A
C333        H336   1.083       .  S
C337        C338   1.427       .  A
C337        C342   1.440       .  A
C338        C339   1.402       .  A
C338        H343   1.078       .  S
C339        C340   1.401       .  A
C339        C346   1.445       .  S
C340        C341   1.395       .  A
C341        C342   1.407       .  A
C341        H344   1.086       .  S
C342        C345   1.443       .  S
C345        N347   1.158       .  T
C346        N348   1.157       .  T
C349        C350   1.426       .  A
C349        C354   1.438       .  A
C350        C351   1.403       .  A
C350        H355   1.085       .  S
C351        C352   1.407       .  A
C351        C358   1.444       .  S
C352        C353   1.397       .  A
C353        C354   1.399       .  A
C353        H356   1.084       .  S
C354        C357   1.443       .  S
C357        N359   1.158       .  T
C358        N360   1.157       .  T
C361        C362   1.422       .  A
C361        C366   1.436       .  A
C362        C363   1.401       .  A
C362        H367   1.079       .  S
C363        C364   1.403       .  A
C363        C370   1.444       .  S
C364        C365   1.397       .  A
C365        C366   1.402       .  A
C365        H368   1.085       .  S
C366        C369   1.447       .  S
C369        N371   1.157       .  T
C370        N372   1.157       .  T
C373        C374   1.415       .  A
C373        C378   1.430       .  A
C374        C375   1.402       .  A
C374        H379   1.084       .  S
C375        C376   1.415       .  A
C375        C382   1.444       .  S
C376        C377   1.400       .  A
C377        C378   1.396       .  A
C377        H380   1.082       .  S
C378        C381   1.444       .  S
C381        N383   1.158       .  T
C382        N384   1.157       .  T
C385        C386   1.417       .  A
C385        C390   1.428       .  A
C386        C387   1.397       .  A
C386        H391   1.077       .  S
C387        C388   1.411       .  A
C387        C394   1.441       .  S
C388        C389   1.409       .  A
C389        C390   1.408       .  A
C389        H392   1.084       .  S
C390        C393   1.445       .  S
C393        N395   1.157   1_556  T
C394        N396   1.156       .  T
C397        C398   1.421       .  A
C397        C402   1.428       .  A
C398        C399   1.397       .  A
C398        H403   1.078       .  S
C399        C400   1.409       .  A
C399        C406   1.446       .  S
C400        C401   1.405       .  A
C401        C402   1.403       .  A
C401        H404   1.084       .  S
C402        C405   1.445       .  S
C405        N407   1.157   1_554  T
C406        N408   1.157       .  T
C409        C410   1.417       .  A
C409        C414   1.435       .  A
C410        C411   1.397       .  A
C410        H415   1.077       .  S
C411        C412   1.402       .  A
C411        C418   1.444       .  S
C412        C413   1.396       .  A
C413        C414   1.402       .  A
C413        H416   1.085       .  S
C414        C417   1.445       .  S
C417        N419   1.158   1_556  T
C418        N420   1.157       .  T
C421        C422   1.415       .  A
C421        C426   1.436       .  A
C422        C423   1.394       .  A
C422        H427   1.081       .  S
C423        C424   1.405       .  A
C423        C430   1.445       .  S
C424        C425   1.397       .  A
C425        C426   1.403       .  A
C425        H428   1.085       .  S
C426        C429   1.443       .  S
C429        N431   1.158       .  T
C430        N432   1.157       .  T
C433        C434   1.419       .  A
C433        C438   1.436       .  A
C434        C435   1.404       .  A
C434        H439   1.084       .  S
C435        C436   1.415       .  A
C435        C442   1.444       .  S
C436        C437   1.402       .  A
C437        C438   1.400       .  A
C437        H440   1.084       .  S
C438        C441   1.444       .  S
C441        N443   1.158       .  T
C442        N444   1.157       .  T
C445        C446   1.419       .  A
C445        C450   1.428       .  A
C446        C447   1.401       .  A
C446        H451   1.079       .  S
C447        C448   1.413       .  A
C447        C454   1.445       .  S
C448        C449   1.405       .  A
C449        C450   1.403       .  A
C449        H452   1.084       .  S
C450        C453   1.442       .  S
C453        N455   1.157   1_545  T
C454        N456   1.158       .  T
C457        C458   1.420       .  A
C457        C462   1.436       .  A
C458        C459   1.396       .  A
C458        H463   1.077       .  S
C459        C460   1.400       .  A
C459        C466   1.446       .  S
C460        C461   1.396       .  A
C461        C462   1.406       .  A
C461        H464   1.085       .  S
C462        C465   1.444       .  S
C465        N467   1.157       .  T
C466        N468   1.157       .  T
C469        C470   1.403       .  A
C469        C474   1.412       .  A
C470        C471   1.402       .  A
C470        H475   1.084       .  S
C471        C472   1.430       .  A
C471        C478   1.445       .  S
C472        C473   1.420       .  A
C473        C474   1.406       .  A
C473        H476   1.079       .  S
C474        C477   1.445       .  S
C477        N479   1.157       .  T
C478        N480   1.157   1_455  T
C481        C482   1.421       .  A
C481        C486   1.433       .  A
C482        C483   1.406       .  A
C482        H487   1.080       .  S
C483        C484   1.409       .  A
C483        C490   1.442       .  S
C484        C485   1.400       .  A
C485        C486   1.404       .  A
C485        H488   1.085       .  S
C486        C489   1.443       .  S
C489        N491   1.157   1_565  T
C490        N492   1.157       .  T
C493        C494   1.422       .  A
C493        C498   1.433       .  A
C494        C495   1.402       .  A
C494        H499   1.080       .  S
C495        C496   1.402       .  A
C495        C502   1.444       .  S
C496        C497   1.393       .  A
C497        C498   1.404       .  A
C497        H500   1.086       .  S
C498        C501   1.439       .  S
C501        N503   1.157       .  T
C502        N504   1.157       .  T
C505        C506   1.397       .  A
C505        C510   1.413       .  A
C506        C507   1.395       .  A
C506        H511   1.086       .  S
C507        C508   1.441       .  A
C507        C514   1.445       .  S
C508        C509   1.420       .  A
C509        C510   1.409       .  A
C509        H512   1.084       .  S
C510        C513   1.443       .  S
C513        N515   1.157       .  T
C514        N516   1.158       .  T
C517        C518   1.424       .  A
C517        C522   1.431       .  A
C518        C519   1.396       .  A
C518        H523   1.077       .  S
C519        C520   1.406       .  A
C519        C526   1.447       .  S
C520        C521   1.406       .  A
C521        C522   1.411       .  A
C521        H524   1.085       .  S
C522        C525   1.444       .  S
C525        N527   1.157   1_455  T
C526        N528   1.157       .  T
C529        C530   1.423       .  A
C529        C534   1.439       .  A
C530        C531   1.400       .  A
C530        H535   1.084       .  S
C531        C532   1.401       .  A
C531        C538   1.444       .  S
C532        C533   1.390       .  A
C533        C534   1.398       .  A
C533        H536   1.086       .  S
C534        C537   1.441       .  S
C537        N539   1.158   1_565  T
C538        N540   1.157       .  T
C541        C542   1.413       .  A
C541        C546   1.424       .  A
C542        C543   1.400       .  A
C542        H547   1.078       .  S
C543        C544   1.430       .  A
C543        C550   1.446       .  S
C544        C545   1.412       .  A
C545        C546   1.402       .  A
C545        H548   1.070       .  S
C546        C549   1.443       .  S
C549        N551   1.158       .  T
C550        N552   1.158       .  T
C553        C554   1.416       .  A
C553        C558   1.432       .  A
C554        C555   1.400       .  A
C554        H559   1.077       .  S
C555        C556   1.414       .  A
C555        C562   1.445       .  S
C556        C557   1.403       .  A
C557        C558   1.405       .  A
C557        H560   1.084       .  S
C558        C561   1.445       .  S
C561        N563   1.157   1_655  T
C562        N564   1.157       .  T
C565        C566   1.404       .  A
C565        C570   1.413       .  A
C566        C567   1.403       .  A
C566        H571   1.084       .  S
C567        C568   1.430       .  A
C567        C574   1.445       .  S
C568        C569   1.417       .  A
C569        C570   1.398       .  A
C569        H572   1.077       .  S
C570        C573   1.446       .  S
C573        N575   1.158       .  T
C574        N576   1.157   1_455  T
C577        C578   1.421       .  A
C577        C582   1.439       .  A
C578        C579   1.403       .  A
C578        H583   1.083       .  S
C579        C580   1.402       .  A
C579        C586   1.443       .  S
C580        C581   1.393       .  A
C581        C582   1.401       .  A
C581        H584   1.086       .  S
C582        C585   1.444       .  S
C585        N587   1.158   1_565  T
C586        N588   1.157       .  T
C589        C590   1.401       .  A
C589        C594   1.409       .  A
C590        C591   1.394       .  A
C590        H595   1.083       .  S
C591        C592   1.428       .  A
C591        C598   1.446       .  S
C592        C593   1.417       .  A
C593        C594   1.400       .  A
C593        H596   1.078       .  S
C594        C597   1.445       .  S
C597        N599   1.157       .  T
C598        N600   1.157       .  T
C601        C602   1.404       .  A
C601        C606   1.411       .  A
C602        C603   1.405       .  A
C602        H607   1.084       .  S
C603        C604   1.430       .  A
C603        C610   1.443       .  S
C604        C605   1.420       .  A
C605        C606   1.395       .  A
C605        H608   1.078       .  S
C606        C609   1.446       .  S
C609        N611   1.157       .  T
C610        N612   1.157   1_655  T
C613        C614   1.420       .  A
C613        C618   1.434       .  A
C614        C615   1.402       .  A
C614        H619   1.084       .  S
C615        C616   1.408       .  A
C615        C622   1.444       .  S
C616        C617   1.399       .  A
C617        C618   1.395       .  A
C617        H620   1.086       .  S
C618        C621   1.444       .  S
C621        N623   1.158       .  T
C622        N624   1.157       .  T
C625        C626   1.424       .  A
C625        C630   1.436       .  A
C626        C627   1.408       .  A
C626        H631   1.080       .  S
C627        C628   1.406       .  A
C627        C634   1.444       .  S
C628        C629   1.393       .  A
C629        C630   1.404       .  A
C629        H632   1.086       .  S
C630        C633   1.440       .  S
C633        N635   1.157       .  T
C634        N636   1.157       .  T
C637        C638   1.421       .  A
C637        C642   1.438       .  A
C638        C639   1.404       .  A
C638        H643   1.085       .  S
C639        C640   1.411       .  A
C639        C646   1.444       .  S
C640        C641   1.403       .  A
C641        C642   1.410       .  A
C641        H644   1.085       .  S
C642        C645   1.442       .  S
C645        N647   1.158       .  T
C646        N648   1.157       .  T
C649        C650   1.420       .  A
C649        C654   1.433       .  A
C650        C651   1.399       .  A
C650        H655   1.084       .  S
C651        C652   1.411       .  A
C651        C658   1.444       .  S
C652        C653   1.401       .  A
C653        C654   1.398       .  A
C653        H656   1.084       .  S
C654        C657   1.444       .  S
C657        N659   1.158       .  T
C658        N660   1.157       .  T
C661        C662   1.418       .  A
C661        C666   1.427       .  A
C662        C663   1.398       .  A
C662        H667   1.079       .  S
C663        C664   1.414       .  A
C663        C670   1.442       .  S
C664        C665   1.408       .  A
C665        C666   1.404       .  A
C665        H668   1.084       .  S
C666        C669   1.444       .  S
C669        N671   1.157       .  T
C670        N672   1.156       .  T
C673        C674   1.419       .  A
C673        C678   1.433       .  A
C674        C675   1.401       .  A
C674        H679   1.079       .  S
C675        C676   1.402       .  A
C675        C682   1.443       .  S
C676        C677   1.394       .  A
C677        C678   1.398       .  A
C677        H680   1.086       .  S
C678        C681   1.442       .  S
C681        N683   1.157       .  T
C682        N684   1.157       .  T
C685        C686   1.423       .  A
C685        C690   1.426       .  A
C686        C687   1.391       .  A
C686        H691   1.076       .  S
C687        C688   1.406       .  A
C687        C694   1.447   1_655  S
C688        C689   1.408       .  A
C689        C690   1.406       .  A
C689        H692   1.084       .  S
C690        C693   1.445       .  S
C693        N695   1.157       .  T
C694        N696   1.157       .  T
C697        C698   1.390       .  A
C697        C702   1.405   1_455  A
C698        C699   1.397       .  A
C698        H703   1.084       .  S
C699        C700   1.436       .  A
C699        C706   1.444       .  S
C700        C701   1.419   1_455  A
C701        C702   1.402       .  A
C701        H704   1.078       .  S
C702        C705   1.445       .  S
C705        N707   1.157       .  T
C706        N708   1.157       .  T
C709        C710   1.395       .  A
C709        C714   1.399       .  A
C710        C711   1.401       .  A
C710        H715   1.086       .  S
C711        C712   1.436       .  A
C711        C718   1.442       .  S
C712        C713   1.424       .  A
C713        C714   1.393       .  A
C713        H716   1.084       .  S
C714        C717   1.445       .  S
C717        N719   1.157       .  T
C718        N720   1.158       .  T
C721        C722   1.417   1_455  A
C721        C726   1.440       .  A
C722        C723   1.403       .  A
C722        H727   1.078       .  S
C723        C724   1.407   1_655  A
C723        C730   1.445       .  S
C724        C725   1.389       .  A
C725        C726   1.392       .  A
C725        H728   1.085       .  S
C726        C729   1.449       .  S
C729        N731   1.158       .  T
C730        N732   1.157       .  T
C733        C734   1.394   1_455  A
C733        C738   1.398       .  A
C734        C735   1.399       .  A
C734        H739   1.087       .  S
C735        C736   1.437       .  A
C735        C742   1.443       .  S
C736        C737   1.425   1_655  A
C737        C738   1.398       .  A
C737        H740   1.084       .  S
C738        C741   1.444       .  S
C741        N743   1.157       .  T
C742        N744   1.158       .  T
C745        C746   1.422       .  A
C745        C750   1.433       .  A
C746        C747   1.401       .  A
C746        H751   1.081       .  S
C747        C748   1.402       .  A
C747        C754   1.444       .  S
C748        C749   1.395       .  A
C749        C750   1.402       .  A
C749        H752   1.086       .  S
C750        C753   1.441       .  S
C753        N755   1.158       .  T
C754        N756   1.157       .  T
C757        C758   1.416       .  A
C757        C762   1.440       .  A
C758        C759   1.405       .  A
C758        H763   1.070       .  S
C759        C760   1.416       .  A
C759        C766   1.445       .  S
C760        C761   1.399       .  A
C761        C762   1.396       .  A
C761        H764   1.083       .  S
C762        C765   1.448       .  S
C765        N767   1.158       .  T
C766        N768   1.157       .  T
C769        C770   1.394       .  A
C769        C774   1.412       .  A
C770        C771   1.393       .  A
C770        H775   1.086       .  S
C771        C772   1.445       .  A
C771        C778   1.449       .  S
C772        C773   1.416       .  A
C773        C774   1.406       .  A
C773        H776   1.072       .  S
C774        C777   1.444       .  S
C777        N779   1.157       .  T
C778        N780   1.158       .  T
C781        C782   1.392       .  A
C781        C786   1.403       .  A
C782        C783   1.396       .  A
C782        H787   1.086       .  S
C783        C784   1.435       .  A
C783        C790   1.445       .  S
C784        C785   1.420       .  A
C785        C786   1.400       .  A
C785        H788   1.077       .  S
C786        C789   1.445       .  S
C789        N791   1.157       .  T
C790        N792   1.157       .  T
C793        C794   1.416       .  A
C793        C798   1.437       .  A
C794        C795   1.401       .  A
C794        H799   1.081       .  S
C795        C796   1.408       .  A
C795        C802   1.443       .  S
C796        C797   1.393       .  A
C797        C798   1.391       .  A
C797        H800   1.086       .  S
C798        C801   1.449       .  S
C801        N803   1.157       .  T
C802        N804   1.157       .  T
C805        C806   1.394       .  A
C805        C810   1.400   1_545  A
C806        C807   1.401       .  A
C806        H811   1.086       .  S
C807        C808   1.435       .  A
C807        C814   1.443       .  S
C808        C809   1.422   1_545  A
C809        C810   1.392       .  A
C809        H812   1.083       .  S
C810        C813   1.446       .  S
C813        N815   1.157       .  T
C814        N816   1.158       .  T
C817        C818   1.403   1_565  A
C817        C822   1.407       .  A
C818        C819   1.403   1_545  A
C818        H823   1.085       .  S
C819        C820   1.426       .  A
C819        C826   1.442   1_565  S
C820        C821   1.420       .  A
C821        C822   1.390       .  A
C821        H824   1.081       .  S
C822        C825   1.446       .  S
C825        N827   1.157       .  T
C826        N828   1.157       .  T
C829        C830   1.422       .  A
C829        C834   1.433       .  A
C830        C831   1.398       .  A
C830        H835   1.085       .  S
C831        C832   1.408       .  A
C831        C838   1.444       .  S
C832        C833   1.402       .  A
C833        C834   1.402       .  A
C833        H836   1.086       .  S
C834        C837   1.442       .  S
C837        N839   1.158       .  T
C838        N840   1.157       .  T
C841        C842   1.421       .  A
C841        C846   1.441       .  A
C842        C843   1.408       .  A
C842        H847   1.084       .  S
C843        C844   1.405       .  A
C843        C850   1.443       .  S
C844        C845   1.394       .  A
C845        C846   1.403       .  A
C845        H848   1.086       .  S
C846        C849   1.445       .  S
C849        N851   1.158       .  T
C850        N852   1.157       .  T
C853        C854   1.419       .  A
C853        C858   1.436       .  A
C854        C855   1.406       .  A
C854        H859   1.080       .  S
C855        C856   1.406       .  A
C855        C862   1.443       .  S
C856        C857   1.390       .  A
C857        C858   1.393       .  A
C857        H860   1.086       .  S
C858        C861   1.442       .  S
C861        N863   1.157       .  T
C862        N864   1.157       .  T
C865        C866   1.418       .  A
C865        C870   1.440       .  A
C866        C867   1.408       .  A
C866        H871   1.084       .  S
C867        C868   1.415       .  A
C867        C874   1.443       .  S
C868        C869   1.392       .  A
C869        C870   1.395       .  A
C869        H872   1.086       .  S
C870        C873   1.441       .  S
C873        N875   1.157       .  T
C874        N876   1.157       .  T
C877        C878   1.422   1_545  A
C877        C882   1.430       .  A
C878        C879   1.393       .  A
C878        H883   1.082       .  S
C879        C880   1.400       .  A
C879        C886   1.445       .  S
C880        C881   1.398   1_565  A
C881        C882   1.403       .  A
C881        H884   1.085       .  S
C882        C885   1.441       .  S
C885        N887   1.158       .  T
C886        N888   1.157       .  T
C889        C890   1.418   1_545  A
C889        C894   1.434       .  A
C890        C891   1.397       .  A
C890        H895   1.078       .  S
C891        C892   1.404       .  A
C891        C898   1.446       .  S
C892        C893   1.395   1_565  A
C893        C894   1.399       .  A
C893        H896   1.085       .  S
C894        C897   1.446       .  S
C897        N899   1.157       .  T
C898        N900   1.157       .  T
C901        C902   1.407       .  A
C901        C906   1.407       .  A
C902        C903   1.409       .  A
C902        H907   1.084       .  S
C903        C904   1.425       .  A
C903        C910   1.442       .  S
C904        C905   1.423       .  A
C905        C906   1.395       .  A
C905        H908   1.079       .  S
C906        C909   1.445       .  S
C909        N911   1.157       .  T
C910        N912   1.157       .  T
C913        C914   1.398       .  A
C913        C918   1.400       .  A
C914        C915   1.407       .  A
C914        H919   1.085       .  S
C915        C916   1.434       .  A
C915        C922   1.445       .  S
C916        C917   1.423       .  A
C917        C918   1.395       .  A
C917        H920   1.078       .  S
C918        C921   1.446       .  S
C921        N923   1.157       .  T
C922        N924   1.157       .  T
C925        C926   1.399       .  A
C925        C930   1.412       .  A
C926        C927   1.399       .  A
C926        H931   1.083       .  S
C927        C928   1.430       .  A
C927        C934   1.435       .  S
C928        C929   1.421       .  A
C929        C930   1.402       .  A
C929        H932   1.085       .  S
C930        C933   1.444       .  S
C933        N935   1.157       .  T
C934        N936   1.155       .  T
C937        C938   1.422       .  A
C937        C942   1.435       .  A
C938        C939   1.402       .  A
C938        H943   1.085       .  S
C939        C940   1.409       .  A
C939        C946   1.444       .  S
C940        C941   1.401       .  A
C941        C942   1.400       .  A
C941        H944   1.085       .  S
C942        C945   1.444       .  S
C945        N947   1.158       .  T
C946        N948   1.157       .  T
C949        C950   1.419       .  A
C949        C954   1.432       .  A
C950        C951   1.393       .  A
C950        H955   1.075       .  S
C951        C952   1.408       .  A
C951        C958   1.447       .  S
C952        C953   1.402       .  A
C953        C954   1.404       .  A
C953        H956   1.085       .  S
C954        C957   1.444       .  S
C957        N959   1.157       .  T
C958        N960   1.157       .  T
C961        C962   1.394       .  A
C961        C966   1.404       .  A
C962        C963   1.401       .  A
C962        H967   1.086       .  S
C963        C964   1.436       .  A
C963        C970   1.443       .  S
C964        C965   1.417       .  A
C965        C966   1.401       .  A
C965        H968   1.078       .  S
C966        C969   1.445       .  S
C969        N971   1.157       .  T
C970        N972   1.157       .  T
C973        C974   1.418   1_545  A
C973        C978   1.437       .  A
C974        C975   1.404       .  A
C974        H979   1.079       .  S
C975        C976   1.406   1_565  A
C975        C982   1.444       .  S
C976        C977   1.389       .  A
C977        C978   1.392       .  A
C977        H980   1.086       .  S
C978        C981   1.445       .  S
C981        N983   1.158       .  T
C982        N984   1.157       .  T
C985        C986   1.406       .  A
C985        C990   1.404       .  A
C986        C987   1.408       .  A
C986        H991   1.084       .  S
C987        C988   1.430       .  A
C987        C994   1.446       .  S
C988        C989   1.423       .  A
C989        C990   1.388       .  A
C989        H992   1.076       .  S
C990        C993   1.447   1_565  S
C993        N995   1.157       .  T
C994        N996   1.157       .  T
C997        C998   1.397       .  A
C997       C1002   1.401       .  A
C998        C999   1.400       .  A
C998       H1003   1.086       .  S
C999       C1000   1.434       .  A
C999       C1006   1.442       .  S
C1000      C1001   1.426       .  A
C1001      C1002   1.397       .  A
C1001      H1004   1.084       .  S
C1002      C1005   1.444       .  S
C1005      N1007   1.157       .  T
C1006      N1008   1.158       .  T
C1009      C1010   1.425       .  A
C1009      C1014   1.444       .  A
C1010      C1011   1.400       .  A
C1010      H1015   1.055       .  S
C1011      C1012   1.398       .  A
C1011      C1018   1.447       .  S
C1012      C1013   1.397       .  A
C1013      C1014   1.409       .  A
C1013      H1016   1.085       .  S
C1014      C1017   1.445       .  S
C1017      N1019   1.158       .  T
C1018      N1020   1.157       .  T
C1021      C1022   1.421       .  A
C1021      C1026   1.431       .  A
C1022      C1023   1.396       .  A
C1022      H1027   1.077       .  S
C1023      C1024   1.406       .  A
C1023      C1030   1.446       .  S
C1024      C1025   1.403       .  A
C1025      C1026   1.403       .  A
C1025      H1028   1.085       .  S
C1026      C1029   1.446       .  S
C1029      N1031   1.157       .  T
C1030      N1032   1.157       .  T
C1033      C1034   1.406       .  A
C1033      C1038   1.404       .  A
C1034      C1035   1.409       .  A
C1034      H1039   1.084       .  S
C1035      C1036   1.431       .  A
C1035      C1042   1.444       .  S
C1036      C1037   1.422       .  A
C1037      C1038   1.391       .  A
C1037      H1040   1.072       .  S
C1038      C1041   1.447       .  S
C1041      N1043   1.157       .  T
C1042      N1044   1.157       .  T
C1045      C1046   1.398       .  A
C1045      C1050   1.398   1_556  A
C1046      C1047   1.408       .  A
C1046      H1051   1.085       .  S
C1047      C1048   1.435   1_556  A
C1047      C1054   1.444       .  S
C1048      C1049   1.405       .  A
C1049      C1050   1.392       .  A
C1049      H1052   1.069       .  S
C1050      C1053   1.439       .  S
C1053      N1055   1.155       .  T
C1054      N1056   1.158       .  T
C1057      C1058   1.401   1_554  A
C1057      C1062   1.402       .  A
C1058      C1059   1.403       .  A
C1058      H1063   1.085       .  S
C1059      C1060   1.427       .  A
C1059      C1066   1.444       .  S
C1060      C1061   1.416   1_556  A
C1061      C1062   1.389       .  A
C1061      H1064   1.078       .  S
C1062      C1065   1.446       .  S
C1065      N1067   1.157       .  T
C1066      N1068   1.158       .  T
C1069      C1070   1.393       .  A
C1069      C1074   1.409       .  A
C1070      C1071   1.393       .  A
C1070      H1075   1.086       .  S
C1071      C1072   1.437       .  A
C1071      C1078   1.446       .  S
C1072      C1073   1.417       .  A
C1073      C1074   1.403       .  A
C1073      H1076   1.079       .  S
C1074      C1077   1.444       .  S
C1077      N1079   1.157       .  T
C1078      N1080   1.158       .  T
C1081      C1082   1.390       .  A
C1081      C1086   1.395       .  A
C1082      C1083   1.400       .  A
C1082      H1087   1.085       .  S
C1083      C1084   1.445       .  A
C1083      C1090   1.444       .  S
C1084      C1085   1.426       .  A
C1085      C1086   1.394       .  A
C1085      H1088   1.083       .  S
C1086      C1089   1.445       .  S
C1089      N1091   1.157       .  T
C1090      N1092   1.158       .  T
C1093      C1094   1.423   1_565  A
C1093      C1098   1.435       .  A
C1094      C1095   1.396       .  A
C1094      H1099   1.083       .  S
C1095      C1096   1.399   1_545  A
C1095      C1102   1.441       .  S
C1096      C1097   1.398       .  A
C1097      C1098   1.406       .  A
C1097      H1100   1.086       .  S
C1098      C1101   1.443       .  S
C1101      N1103   1.158       .  T
C1102      N1104   1.156       .  T
C1105      C1106   1.415       .  A
C1105      C1110   1.441       .  A
C1106      C1107   1.407       .  A
C1106      H1111   1.084       .  S
C1107      C1108   1.417   1_545  A
C1107      C1114   1.443   1_545  S
C1108      C1109   1.393   1_565  A
C1109      C1110   1.395       .  A
C1109      H1112   1.086       .  S
C1110      C1113   1.444       .  S
C1113      N1115   1.158       .  T
C1114      N1116   1.157       .  T
C1117      C1118   1.391       .  A
C1117      C1122   1.401       .  A
C1118      C1119   1.403       .  A
C1118      H1123   1.086       .  S
C1119      C1120   1.439       .  A
C1119      C1126   1.441       .  S
C1120      C1121   1.424       .  A
C1121      C1122   1.405       .  A
C1121      H1124   1.076       .  S
C1122      C1125   1.444       .  S
C1125      N1127   1.157       .  T
C1126      N1128   1.157       .  T
C1129      C1130   1.419       .  A
C1129      C1134   1.440       .  A
C1130      C1131   1.405       .  A
C1130      H1135   1.085       .  S
C1131      C1132   1.415       .  A
C1131      C1138   1.444       .  S
C1132      C1133   1.400       .  A
C1133      C1134   1.406       .  A
C1133      H1136   1.085       .  S
C1134      C1137   1.442       .  S
C1137      N1139   1.157       .  T
C1138      N1140   1.157       .  T
C1141      C1142   1.420       .  A
C1141      C1146   1.436       .  A
C1142      C1143   1.401       .  A
C1142      H1147   1.078       .  S
C1143      C1144   1.403       .  A
C1143      C1150   1.445       .  S
C1144      C1145   1.392       .  A
C1145      C1146   1.399       .  A
C1145      H1148   1.086       .  S
C1146      C1149   1.442       .  S
C1149      N1151   1.157       .  T
C1150      N1152   1.157       .  T
C1153      C1154   1.390       .  A
C1153      C1158   1.402       .  A
C1154      C1155   1.393       .  A
C1154      H1159   1.086       .  S
C1155      C1156   1.438       .  A
C1155      C1162   1.447       .  S
C1156      C1157   1.421       .  A
C1157      C1158   1.398       .  A
C1157      H1160   1.077       .  S
C1158      C1161   1.446       .  S
C1161      N1163   1.157       .  T
C1162      N1164   1.157       .  T
C1165      C1166   1.393       .  A
C1165      C1170   1.413       .  A
C1166      C1167   1.389       .  A
C1166      H1171   1.086       .  S
C1167      C1168   1.437       .  A
C1167      C1174   1.444       .  S
C1168      C1169   1.418       .  A
C1169      C1170   1.405       .  A
C1169      H1172   1.085       .  S
C1170      C1173   1.443       .  S
C1173      N1175   1.157       .  T
C1174      N1176   1.158       .  T
C1177      C1178   1.421   1_556  A
C1177      C1182   1.436       .  A
C1178      C1179   1.398       .  A
C1178      H1183   1.077       .  S
C1179      C1180   1.402       .  A
C1179      C1186   1.446       .  S
C1180      C1181   1.391   1_554  A
C1181      C1182   1.395       .  A
C1181      H1184   1.086       .  S
C1182      C1185   1.446       .  S
C1185      N1187   1.157       .  T
C1186      N1188   1.157       .  T
C1189      C1190   1.392   1_556  A
C1189      C1194   1.392       .  A
C1190      C1191   1.406       .  A
C1190      H1195   1.087       .  S
C1191      C1192   1.451       .  A
C1191      C1198   1.444       .  S
C1192      C1193   1.419   1_554  A
C1193      C1194   1.392       .  A
C1193      H1196   1.058       .  S
C1194      C1197   1.447       .  S
C1197      N1199   1.157       .  T
C1198      N1200   1.158       .  T
C1201      C1202   1.422       .  A
C1201      C1206   1.429       .  A
C1202      C1203   1.407       .  A
C1202      H1207   1.079       .  S
C1203      C1204   1.409       .  A
C1203      C1210   1.444       .  S
C1204      C1205   1.402       .  A
C1205      C1206   1.402       .  A
C1205      H1208   1.085       .  S
C1206      C1209   1.442       .  S
C1209      N1211   1.157       .  T
C1210      N1212   1.157       .  T
C1213      C1214   1.395       .  A
C1213      C1218   1.399       .  A
C1214      C1215   1.402       .  A
C1214      H1219   1.086       .  S
C1215      C1216   1.435       .  A
C1215      C1222   1.442       .  S
C1216      C1217   1.423       .  A
C1217      C1218   1.399       .  A
C1217      H1220   1.082       .  S
C1218      C1221   1.444       .  S
C1221      N1223   1.157       .  T
C1222      N1224   1.158       .  T
C1225      C1226   1.421       .  A
C1225      C1230   1.435       .  A
C1226      C1227   1.398       .  A
C1226      H1231   1.077       .  S
C1227      C1228   1.407       .  A
C1227      C1234   1.446       .  S
C1228      C1229   1.400       .  A
C1229      C1230   1.404       .  A
C1229      H1232   1.085       .  S
C1230      C1233   1.446       .  S
C1233      N1235   1.157       .  T
C1234      N1236   1.157       .  T
C1237      C1238   1.398       .  A
C1237      C1242   1.412       .  A
C1238      C1239   1.398       .  A
C1238      H1243   1.085       .  S
C1239      C1240   1.437       .  A
C1239      C1246   1.441       .  S
C1240      C1241   1.420       .  A
C1241      C1242   1.403       .  A
C1241      H1244   1.085       .  S
C1242      C1245   1.444       .  S
C1245      N1247   1.157       .  T
C1246      N1248   1.157       .  T
C1249      C1250   1.402       .  A
C1249      C1254   1.408       .  A
C1250      C1251   1.405       .  A
C1250      H1255   1.085       .  S
C1251      C1252   1.428       .  A
C1251      C1258   1.442       .  S
C1252      C1253   1.421       .  A
C1253      C1254   1.393       .  A
C1253      H1256   1.081       .  S
C1254      C1257   1.446       .  S
C1257      N1259   1.157       .  T
C1258      N1260   1.157       .  T
C1261      C1262   1.393       .  A
C1261      C1266   1.400   1_455  A
C1262      C1263   1.402       .  A
C1262      H1267   1.086       .  S
C1263      C1264   1.440       .  A
C1263      C1270   1.443       .  S
C1264      C1265   1.423   1_455  A
C1265      C1266   1.397       .  A
C1265      H1268   1.084       .  S
C1266      C1269   1.443       .  S
C1269      N1271   1.156       .  T
C1270      N1272   1.158       .  T
C1273      C1274   1.420   1_455  A
C1273      C1278   1.436       .  A
C1274      C1275   1.390       .  A
C1274      H1279   1.085       .  S
C1275      C1276   1.398   1_655  A
C1275      C1282   1.439       .  S
C1276      C1277   1.399       .  A
C1277      C1278   1.408       .  A
C1277      H1280   1.086       .  S
C1278      C1281   1.442       .  S
C1281      N1283   1.158       .  T
C1282      N1284   1.155       .  T
C1285      C1286   1.396       .  A
C1285      C1290   1.406       .  A
C1286      C1287   1.396       .  A
C1286      H1291   1.085       .  S
C1287      C1288   1.436       .  A
C1287      C1294   1.447       .  S
C1288      C1289   1.417       .  A
C1289      C1290   1.397       .  A
C1289      H1292   1.073       .  S
C1290      C1293   1.443       .  S
C1293      N1295   1.157       .  T
C1294      N1296   1.158       .  T
C1297      C1298   1.411   1_655  A
C1297      C1302   1.440       .  A
C1298      C1299   1.397       .  A
C1298      H1303   1.075       .  S
C1299      C1300   1.413   1_455  A
C1299      C1306   1.445       .  S
C1300      C1301   1.392       .  A
C1301      C1302   1.396       .  A
C1301      H1304   1.085       .  S
C1302      C1305   1.447       .  S
C1305      N1307   1.157       .  T
C1306      N1308   1.158       .  T
C1309      C1310   1.399   1_455  A
C1309      C1314   1.402       .  A
C1310      C1311   1.404       .  A
C1310      H1315   1.085       .  S
C1311      C1312   1.429   1_655  A
C1311      C1318   1.442       .  S
C1312      C1313   1.420       .  A
C1313      C1314   1.395       .  A
C1313      H1316   1.083       .  S
C1314      C1317   1.440       .  S
C1317      N1319   1.156       .  T
C1318      N1320   1.158       .  T
C1321      C1322   1.420       .  A
C1321      C1326   1.431       .  A
C1322      C1323   1.399       .  A
C1322      H1327   1.080       .  S
C1323      C1324   1.406       .  A
C1323      C1330   1.444       .  S
C1324      C1325   1.400       .  A
C1325      C1326   1.403       .  A
C1325      H1328   1.085       .  S
C1326      C1329   1.444       .  S
C1329      N1331   1.157       .  T
C1330      N1332   1.157       .  T
C1333      C1334   1.419       .  A
C1333      C1338   1.433       .  A
C1334      C1335   1.397       .  A
C1334      H1339   1.078       .  S
C1335      C1336   1.401       .  A
C1335      C1342   1.445       .  S
C1336      C1337   1.399       .  A
C1337      C1338   1.408       .  A
C1337      H1340   1.085       .  S
C1338      C1341   1.444       .  S
C1341      N1343   1.157       .  T
C1342      N1344   1.157       .  T
C1345      C1346   1.424       .  A
C1345      C1350   1.425       .  A
C1346      C1347   1.400       .  A
C1346      H1351   1.078       .  S
C1347      C1348   1.407       .  A
C1347      C1354   1.445       .  S
C1348      C1349   1.408       .  A
C1349      C1350   1.404       .  A
C1349      H1352   1.084       .  S
C1350      C1353   1.445       .  S
C1353      N1355   1.157       .  T
C1354      N1356   1.157       .  T
C1357      C1358   1.395       .  A
C1357      C1362   1.408       .  A
C1358      C1359   1.402       .  A
C1358      H1363   1.085       .  S
C1359      C1360   1.438       .  A
C1359      C1366   1.447       .  S
C1360      C1361   1.418       .  A
C1361      C1362   1.402       .  A
C1361      H1364   1.077       .  S
C1362      C1365   1.445       .  S
C1365      N1367   1.157       .  T
C1366      N1368   1.157       .  T
C1369      C1370   1.397       .  A
C1369      C1374   1.399       .  A
C1370      C1371   1.404       .  A
C1370      H1375   1.085       .  S
C1371      C1372   1.430       .  A
C1371      C1378   1.442       .  S
C1372      C1373   1.420       .  A
C1373      C1374   1.392       .  A
C1373      H1376   1.082       .  S
C1374      C1377   1.440       .  S
C1377      N1379   1.156       .  T
C1378      N1380   1.158       .  T
C1381      C1382   1.395   1_556  A
C1381      C1386   1.413       .  A
C1382      C1383   1.395       .  A
C1382      H1387   1.085       .  S
C1383      C1384   1.434       .  A
C1383      C1390   1.444       .  S
C1384      C1385   1.416   1_554  A
C1385      C1386   1.403       .  A
C1385      H1388   1.083       .  S
C1386      C1389   1.444       .  S
C1389      N1391   1.157       .  T
C1390      N1392   1.157       .  T
C1393      C1394   1.423   1_554  A
C1393      C1398   1.436       .  A
C1394      C1395   1.399       .  A
C1394      H1399   1.081       .  S
C1395      C1396   1.409   1_556  A
C1395      C1402   1.445       .  S
C1396      C1397   1.392       .  A
C1397      C1398   1.399       .  A
C1397      H1400   1.086       .  S
C1398      C1401   1.442       .  S
C1401      N1403   1.158       .  T
C1402      N1404   1.158       .  T
C1405      C1406   1.422       .  A
C1405      C1410   1.434       .  A
C1406      C1407   1.402       .  A
C1406      H1411   1.079       .  S
C1407      C1408   1.402       .  A
C1407      C1414   1.444       .  S
C1408      C1409   1.395       .  A
C1409      C1410   1.406       .  A
C1409      H1412   1.086       .  S
C1410      C1413   1.440       .  S
C1413      N1415   1.157       .  T
C1414      N1416   1.157       .  T
C1417      C1418   1.422       .  A
C1417      C1422   1.433       .  A
C1418      C1419   1.405       .  A
C1418      H1423   1.079       .  S
C1419      C1420   1.411       .  A
C1419      C1426   1.445       .  S
C1420      C1421   1.399       .  A
C1421      C1422   1.404       .  A
C1421      H1424   1.085       .  S
C1422      C1425   1.443       .  S
C1425      N1427   1.157       .  T
C1426      N1428   1.157       .  T
C1429      C1430   1.420       .  A
C1429      C1434   1.431       .  A
C1430      C1431   1.391       .  A
C1430      H1435   1.083       .  S
C1431      C1432   1.398       .  A
C1431      C1438   1.438       .  S
C1432      C1433   1.399       .  A
C1433      C1434   1.406       .  A
C1433      H1436   1.083       .  S
C1434      C1437   1.441       .  S
C1437      N1439   1.158       .  T
C1438      N1440   1.155       .  T
C1441      C1442   1.398       .  A
C1441      C1446   1.404       .  A
C1442      C1443   1.405       .  A
C1442      H1447   1.084       .  S
C1443      C1444   1.435       .  A
C1443      C1450   1.443       .  S
C1444      C1445   1.420       .  A
C1445      C1446   1.399       .  A
C1445      H1448   1.084       .  S
C1446      C1449   1.444       .  S
C1449      N1451   1.157       .  T
C1450      N1452   1.158       .  T
C1453      C1454   1.398   1_554  A
C1453      C1458   1.397       .  A
C1454      C1455   1.404       .  A
C1454      H1459   1.086       .  S
C1455      C1456   1.433       .  A
C1455      C1462   1.441       .  S
C1456      C1457   1.426   1_556  A
C1457      C1458   1.391       .  A
C1457      H1460   1.084       .  S
C1458      C1461   1.444       .  S
C1461      N1463   1.157       .  T
C1462      N1464   1.158       .  T
C1465      C1466   1.412       .  A
C1465      C1470   1.433       .  A
C1466      C1467   1.399       .  A
C1466      H1471   1.080   1_556  S
C1467      C1468   1.413       .  A
C1467      C1474   1.444   1_556  S
C1468      C1469   1.396       .  A
C1469      C1470   1.392       .  A
C1469      H1472   1.085       .  S
C1470      C1473   1.446       .  S
C1473      N1475   1.158       .  T
C1474      N1476   1.157       .  T
C1477      C1478   1.395       .  A
C1477      C1482   1.415       .  A
C1478      C1479   1.395       .  A
C1478      H1483   1.086       .  S
C1479      C1480   1.439       .  A
C1479      C1486   1.444       .  S
C1480      C1481   1.417       .  A
C1481      C1482   1.408       .  A
C1481      H1484   1.084       .  S
C1482      C1485   1.443       .  S
C1485      N1487   1.157       .  T
C1486      N1488   1.158       .  T
