geometry optimzed in LAMMPS
_audit_creation_date              2020-11-30 
_audit_creation_method            'lammps2cif' 
_symmetry_space_group_name_H-M    'P1' 
_symmetry_Int_Tables_number       1 
_symmetry_cell_setting            triclinic 
loop_ 
_symmetry_equiv_pos_as_xyz 
  x,y,z 
_cell_length_a                    34.84478739 
_cell_length_b                    34.84531235008212 
_cell_length_c                    34.845373052058434 
_cell_angle_alpha                 89.99942495957579 
_cell_angle_beta                  90.0002391285983 
_cell_angle_gamma                 90.00012439049696 
loop_ 
_atom_site_label 
_atom_site_type_symbol 
_atom_site_fract_x 
_atom_site_fract_y 
_atom_site_fract_z 
_atom_site_charge 
C1          C  0.33003401  0.67018041  0.17025662     0.89600
C2          C  0.35673762  0.64348104  0.19317545    -0.50600
C3          C  0.37920093  0.62102251  0.17029377     0.12500
C4          C  0.37304235  0.62718068  0.12724031     0.23500
C5          C  0.35672923  0.69310950  0.14355811    -0.51400
C6          C  0.37919241  0.67023666  0.12109094     0.12600
C7          C  0.30710962  0.64348278  0.14355682    -0.50900
C8          C  0.32998685  0.62102414  0.12108944     0.13200
H9          H  0.35776493  0.64245386  0.22430695     0.17700
H10         H  0.39147714  0.60874970  0.10880211     0.03500
H11         H  0.35775126  0.72424218  0.14253759     0.18000
H12         H  0.27597725  0.64245606  0.14253560     0.17800
C13         C  0.69276613  0.30742840  0.17026372     0.89600
C14         C  0.71569619  0.33412598  0.14356843    -0.50600
C15         C  0.69282326  0.35659065  0.12110228     0.12500
C16         C  0.64976673  0.35043996  0.12724941     0.23500
C17         C  0.66606558  0.33412897  0.19318372    -0.51400
C18         C  0.64360741  0.35659425  0.17030315     0.12600
C19         C  0.66606941  0.28450653  0.14356069    -0.50900
C20         C  0.64361122  0.30738576  0.12109423     0.13200
H21         H  0.74682892  0.33514762  0.14254848     0.17700
H22         H  0.63133616  0.36887600  0.10881198     0.03500
H23         H  0.66503826  0.33515385  0.22431605     0.18000
H24         H  0.66504429  0.25337568  0.14253546     0.17800
C25         C  0.69278589  0.67018504  0.17021766     0.89600
C26         C  0.66608674  0.69311012  0.14351887    -0.50600
C27         C  0.64362120  0.67023366  0.12105685     0.12500
C28         C  0.64977307  0.62717860  0.12721135     0.23500
C29         C  0.66608591  0.64348769  0.19314202    -0.51400
C30         C  0.64362093  0.62102573  0.17026626     0.12600
C31         C  0.71570795  0.64348391  0.14351848    -0.50900
C32         C  0.69282776  0.62102149  0.12105650     0.13200
H33         H  0.66506316  0.72424200  0.14249543     0.17700
H34         H  0.63133637  0.60874480  0.10877858     0.03500
H35         H  0.66506319  0.64246312  0.22427501     0.18000
H36         H  0.74683965  0.64245608  0.14249560     0.17800
C37         C  0.33005459  0.30745085  0.17026249     0.89600
C38         C  0.35675483  0.28453305  0.14356103    -0.50600
C39         C  0.37921357  0.30741529  0.12109916     0.12500
C40         C  0.37305415  0.35046867  0.12725631     0.23500
C41         C  0.35675097  0.33415073  0.19318796    -0.51400
C42         C  0.37920957  0.35661897  0.17031114     0.12600
C43         C  0.30712473  0.33414829  0.14356815    -0.50900
C44         C  0.32999741  0.35661647  0.12110631     0.13200
H45         H  0.35778317  0.25340058  0.14253453     0.17700
H46         H  0.39148536  0.36890776  0.10882187     0.03500
H47         H  0.35777696  0.33517142  0.22431952     0.18000
H48         H  0.27599191  0.33516773  0.14254592     0.17800
O49         O  0.55006984  0.45017250  0.22259275    -0.68700
O50         O  0.47276950  0.52747730  0.22258826    -0.68900
O51         O  0.47276740  0.45017604  0.22259962    -0.68700
O52         O  0.55007248  0.52747471  0.22258181    -0.68800
O53         O  0.54985243  0.52725098  0.16015230    -0.68700
O54         O  0.47297647  0.45038319  0.16016999    -0.68700
O55         O  0.47297936  0.52725456  0.16015880    -0.68700
O56         O  0.54984885  0.45037872  0.16016326    -0.68900
V57         V  0.51141988  0.48882509  0.22142559     1.35200
V58         V  0.51141454  0.48881712  0.16142298     1.35200
C59         C  0.56296905  0.43726300  0.19125983     0.80600
C60         C  0.45986297  0.54037677  0.19125385     0.80600
C61         C  0.45986042  0.43726939  0.19126883     0.80500
C62         C  0.56297355  0.54037359  0.19124518     0.80500
C63         C  0.32998787  0.30740686  0.80756268     0.89600
C64         C  0.30706158  0.33410527  0.83426028    -0.50600
C65         C  0.32993854  0.35657296  0.85671995     0.12500
C66         C  0.37299436  0.35042322  0.85056416     0.23500
C67         C  0.35668245  0.33410632  0.78463502    -0.51400
C68         C  0.37914459  0.35657318  0.80750855     0.12600
C69         C  0.35669141  0.28448784  0.83426165    -0.50900
C70         C  0.37915394  0.30736963  0.85672096     0.13200
H71         H  0.27593050  0.33512682  0.83528470     0.17700
H72         H  0.39142882  0.36886132  0.86899506     0.03500
H73         H  0.35770610  0.33512644  0.75350380     0.18000
H74         H  0.35772144  0.25335632  0.83528590     0.17800
C75         C  0.69275911  0.30741505  0.80750402     0.89600
C76         C  0.66605547  0.33411084  0.78458115    -0.50600
C77         C  0.64358636  0.35656714  0.80745906     0.12500
C78         C  0.64973973  0.35041083  0.85051362     0.23500
C79         C  0.71567682  0.33411587  0.83420690    -0.51400
C80         C  0.69279356  0.35657218  0.85667103     0.12600
C81         C  0.66606289  0.28448357  0.83419971    -0.50900
C82         C  0.64359427  0.30735442  0.85666339     0.13200
H83         H  0.66503178  0.33513675  0.75344910     0.17700
H84         H  0.63130044  0.36883959  0.86894867     0.03500
H85         H  0.74680890  0.33514475  0.83523388     0.18000
H86         H  0.66504526  0.25335106  0.83522191     0.17800
C87         C  0.69273455  0.67012172  0.80749201     0.89600
C88         C  0.66603678  0.64342360  0.78456566    -0.50600
C89         C  0.64357095  0.62096095  0.80744105     0.12500
C90         C  0.64972098  0.62711442  0.85049626     0.23500
C91         C  0.66603376  0.69304581  0.83418827    -0.51400
C92         C  0.64356809  0.67016923  0.85664935     0.12600
C93         C  0.71565566  0.64342229  0.83419288    -0.50900
C94         C  0.69277556  0.62095989  0.85665380     0.13200
H95         H  0.66501570  0.64239945  0.75343291     0.17700
H96         H  0.63128404  0.60868010  0.86892970     0.03500
H97         H  0.66501173  0.72417871  0.83521353     0.18000
H98         H  0.74678834  0.64239822  0.83522065     0.17800
C99         C  0.33001154  0.67014792  0.80751056     0.89600
C100        C  0.30707931  0.64345382  0.83420727    -0.50600
C101        C  0.32995022  0.62098733  0.85667347     0.12500
C102        C  0.37300755  0.62713278  0.85052494     0.23500
C103        C  0.35671177  0.69306733  0.83421198    -0.51400
C104        C  0.37916839  0.67018663  0.85667833     0.12600
C105        C  0.35670841  0.64344366  0.78459060    -0.50900
C106        C  0.37916511  0.62097687  0.80747107     0.13200
H107        H  0.27594658  0.64243593  0.83522827     0.17700
H108        H  0.39143664  0.60869539  0.86896224     0.03500
H109        H  0.35774117  0.72419969  0.83523548     0.18000
H110        H  0.35773553  0.64241865  0.75345836     0.17800
O111        O  0.34007927  0.52723576  0.95044721    -0.68700
O112        O  0.34009892  0.45037850  0.02733185    -0.68900
O113        O  0.34007932  0.45036412  0.95046130    -0.68700
O114        O  0.34009915  0.52724969  0.02731859    -0.68800
O115        O  0.27766868  0.52746481  0.02754952    -0.68700
O116        O  0.27764875  0.45014868  0.95026168    -0.68700
O117        O  0.27766829  0.45016314  0.02756276    -0.68700
O118        O  0.27764859  0.52745101  0.95024754    -0.68900
V119        V  0.33882713  0.48880714  0.98889000     1.35200
V120        V  0.27882350  0.48880706  0.98890505     1.35200
C121        C  0.30897977  0.54035179  0.93733410     0.80600
C122        C  0.30900601  0.43726192  0.04045970     0.80600
C123        C  0.30897987  0.43724229  0.93735354     0.80500
C124        C  0.30900639  0.54037016  0.04044310     0.80500
O125        O  0.54981365  0.66006372  0.95044337    -0.68700
O126        O  0.47295478  0.66009464  0.02732812    -0.68900
O127        O  0.47294102  0.66006800  0.95045680    -0.68700
O128        O  0.54982809  0.66009014  0.02731500    -0.68800
O129        O  0.55004712  0.72251976  0.02750812    -0.68700
O130        O  0.47272967  0.72249753  0.95021982    -0.68700
O131        O  0.47274318  0.72252435  0.02752148    -0.68700
O132        O  0.55003218  0.72249328  0.95020635    -0.68900
V133        V  0.51138447  0.66134109  0.98888556     1.35200
V134        V  0.51138798  0.72134377  0.98886450     1.35200
C135        C  0.56293123  0.69115440  0.93731135     0.80600
C136        C  0.45983943  0.69119557  0.04043726     0.80600
C137        C  0.45982225  0.69116005  0.93732918     0.80500
C138        C  0.56295175  0.69118957  0.04041989     0.80500
O139        O  0.68265779  0.52720523  0.95044699    -0.68700
O140        O  0.68268268  0.45034737  0.02733269    -0.68900
O141        O  0.68267805  0.52721976  0.02731887    -0.68700
O142        O  0.68266224  0.45033367  0.95046041    -0.68800
O143        O  0.74509267  0.45012266  0.95022949    -0.68700
O144        O  0.74510855  0.52743852  0.02751755    -0.68700
O145        O  0.74511334  0.45013613  0.02753162    -0.68700
O146        O  0.74508833  0.52742373  0.95021611    -0.68900
V147        V  0.68393207  0.48877644  0.98888964     1.35200
V148        V  0.74393564  0.48878005  0.98887419     1.35200
C149        C  0.71375010  0.54032271  0.93731807     0.80600
C150        C  0.71378328  0.43723306  0.04044528     0.80600
C151        C  0.71377706  0.54034361  0.04042609     0.80500
C152        C  0.71375594  0.43721612  0.93733479     0.80500
O153        O  0.54985577  0.31751486  0.02730647    -0.68700
O154        O  0.47296899  0.31751065  0.95044835    -0.68900
O155        O  0.47298345  0.31752891  0.02731886    -0.68700
O156        O  0.54984242  0.31749635  0.95043463    -0.68800
O157        O  0.55004599  0.25506661  0.95023474    -0.68700
O158        O  0.47275720  0.25509929  0.02754908    -0.68700
O159        O  0.47274240  0.25508101  0.95024893    -0.68700
O160        O  0.55005941  0.25508525  0.02753678    -0.68900
V161        V  0.51141272  0.31625080  0.98887716     1.35200
V162        V  0.51140173  0.25624807  0.98889191     1.35200
C163        C  0.56296973  0.28641974  0.04043163     0.80600
C164        C  0.45984044  0.28641406  0.93734174     0.80600
C165        C  0.45986110  0.28643838  0.04044624     0.80500
C166        C  0.56295310  0.28639503  0.93732168     0.80500
O167        O  0.55000851  0.52740432  0.75515529    -0.68700
O168        O  0.47270251  0.45010638  0.75517967    -0.68900
O169        O  0.47270537  0.52740743  0.75517127    -0.68700
O170        O  0.55000623  0.45010282  0.75516414    -0.68800
O171        O  0.54980346  0.45032389  0.81759363    -0.68700
O172        O  0.47293369  0.52719908  0.81760073    -0.68700
O173        O  0.47293028  0.45032816  0.81760921    -0.68700
O174        O  0.54980670  0.52719512  0.81758490    -0.68900
V175        V  0.51135589  0.48875519  0.75633256     1.35200
V176        V  0.51136828  0.48876129  0.81633517     1.35200
C177        C  0.56291923  0.54031005  0.78648499     0.80600
C178        C  0.45980390  0.43720818  0.78651758     0.80600
C179        C  0.45980885  0.54031483  0.78650618     0.80500
C180        C  0.56291667  0.43720289  0.78649677     0.80500
C181        C  0.69273014  0.17013175  0.67026810     0.89600
C182        C  0.71565375  0.14343486  0.64356752    -0.50600
C183        C  0.69277548  0.12097969  0.62109777     0.12500
C184        C  0.64972034  0.12713923  0.62724611     0.23500
C185        C  0.66603835  0.19306520  0.64357085    -0.51400
C186        C  0.64357460  0.17019656  0.62110051     0.12600
C187        C  0.66602442  0.14343183  0.69318385    -0.50900
C188        C  0.64356097  0.12097641  0.67029868     0.13200
H189        H  0.74678607  0.14240460  0.64254895     0.17700
H190        H  0.63128535  0.10871145  0.60880542     0.03500
H191        H  0.66502009  0.22419724  0.64255218     0.18000
H192        H  0.66499877  0.14239920  0.72431429     0.17800
C193        C  0.69279455  0.17016838  0.30754304     0.89600
C194        C  0.66609318  0.14347112  0.28462063    -0.50600
C195        C  0.64362391  0.12101509  0.30749848     0.12500
C196        C  0.64977385  0.12717379  0.35055291     0.23500
C197        C  0.66609690  0.19310067  0.33423562    -0.51400
C198        C  0.64362717  0.17023068  0.35669970     0.12600
C199        C  0.71571180  0.14346872  0.33424807    -0.50900
C200        C  0.69282749  0.12101231  0.35671191     0.13200
H201        H  0.66507270  0.14244224  0.25348867     0.17700
H202        H  0.63133319  0.10874455  0.36898800     0.03500
H203        H  0.66507760  0.22423262  0.33525409     0.18000
H204        H  0.74684378  0.14243732  0.33527340     0.17800
C205        C  0.33003098  0.17018261  0.67023916     0.89600
C206        C  0.35673530  0.14347654  0.69314817    -0.50600
C207        C  0.37918953  0.12101766  0.67025877     0.12500
C208        C  0.37302334  0.12718301  0.62720742     0.23500
C209        C  0.35672268  0.19311206  0.64353791    -0.51400
C210        C  0.37917783  0.17023950  0.62106255     0.12600
C211        C  0.30709636  0.14349168  0.64354195    -0.50900
C212        C  0.32996541  0.12103265  0.62106719     0.13200
H213        H  0.35776662  0.14244216  0.72428050     0.17700
H214        H  0.39145080  0.10875181  0.60876335     0.03500
H215        H  0.35774943  0.22424439  0.64252279     0.18000
H216        H  0.27596430  0.14246661  0.64253064     0.17800
C217        C  0.33003328  0.17018963  0.30751853     0.89600
C218        C  0.35672708  0.19312580  0.33421138    -0.50600
C219        C  0.37919403  0.17025887  0.35668084     0.12500
C220        C  0.37304828  0.12720096  0.35053937     0.23500
C221        C  0.35673775  0.14349041  0.28460255    -0.51400
C222        C  0.37920447  0.12103777  0.30748635     0.12600
C223        C  0.30711284  0.14349384  0.33422310    -0.50900
C224        C  0.32999340  0.12104067  0.35669280     0.13200
H225        H  0.35774647  0.22425858  0.33522563     0.17700
H226        H  0.39148600  0.10877459  0.36897915     0.03500
H227        H  0.35776294  0.14245876  0.25347114     0.18000
H228        H  0.27597999  0.14246309  0.33524459     0.17800
O229        O  0.55006303  0.22255312  0.45023653    -0.68700
O230        O  0.47274689  0.22255509  0.52752625    -0.68900
O231        O  0.55005036  0.22254086  0.52753853    -0.68700
O232        O  0.47275887  0.22256768  0.45022494    -0.68800
O233        O  0.47296310  0.16013791  0.45043151    -0.68700
O234        O  0.54982314  0.16011124  0.52731344    -0.68700
O235        O  0.47295109  0.16012546  0.52730130    -0.68700
O236        O  0.54983560  0.16012352  0.45044288    -0.68900
V237        V  0.51140473  0.22138945  0.48888127     1.35200
V238        V  0.51139359  0.16138671  0.48887233     1.35200
C239        C  0.56296292  0.19121853  0.43733120     0.80600
C240        C  0.45983530  0.19122115  0.54042213     0.80600
C241        C  0.56294536  0.19120217  0.54043907     0.80500
C242        C  0.45985050  0.19123780  0.43731697     0.80500
C243        C  0.69274022  0.80742586  0.30751449     0.89600
C244        C  0.66604738  0.83412543  0.28458310    -0.50600
C245        C  0.64358601  0.85659668  0.30745413     0.12500
C246        C  0.64973532  0.85044979  0.35051045     0.23500
C247        C  0.71566668  0.83412576  0.33421043    -0.51400
C248        C  0.69279099  0.85659653  0.35666717     0.12600
C249        C  0.66603443  0.78451190  0.33421608    -0.50900
C250        C  0.64357339  0.80739763  0.35667296     0.13200
H251        H  0.66502627  0.83514416  0.25345110     0.17700
H252        H  0.63130237  0.86889119  0.36894014     0.03500
H253        H  0.74679897  0.83514295  0.33523903     0.18000
H254        H  0.66500591  0.75337958  0.33524770     0.17800
C255        C  0.33000925  0.80748477  0.30749490     0.89600
C256        C  0.35670273  0.83418742  0.28456876    -0.50600
C257        C  0.37915752  0.85666051  0.30744427     0.12500
C258        C  0.37300083  0.85051272  0.35049954     0.23500
C259        C  0.35671243  0.78457363  0.33419996    -0.51400
C260        C  0.37916646  0.80746099  0.35666087     0.12600
C261        C  0.30707421  0.83418058  0.33418676    -0.50900
C262        C  0.32994287  0.85665371  0.35664829     0.13200
H263        H  0.35773256  0.83520338  0.25343573     0.17700
H264        H  0.39142859  0.86895493  0.36893296     0.03500
H265        H  0.35774578  0.75344148  0.33522963     0.18000
H266        H  0.27594061  0.83519260  0.33521023     0.17800
C267        C  0.32995548  0.80742396  0.67022328     0.89600
C268        C  0.35665607  0.78450891  0.64351812    -0.50600
C269        C  0.37911166  0.80739374  0.62105453     0.12500
C270        C  0.37294896  0.85044617  0.62721336     0.23500
C271        C  0.35665308  0.83412565  0.69314562    -0.51400
C272        C  0.37910852  0.85659555  0.67026748     0.12600
C273        C  0.30702145  0.83412148  0.64353042    -0.50900
C274        C  0.32989141  0.85659209  0.62106633     0.13200
H275        H  0.35768943  0.75337715  0.64249329     0.17700
H276        H  0.39137799  0.86888679  0.60877844     0.03500
H277        H  0.35768440  0.83514399  0.72427765     0.18000
H278        H  0.27588883  0.83513975  0.64251164     0.17800
C279        C  0.69272736  0.80739468  0.67025712     0.89600
C280        C  0.66602741  0.78446881  0.64355964    -0.50600
C281        C  0.64355895  0.80734511  0.62109981     0.12500
C282        C  0.64970866  0.85039994  0.62725446     0.23500
C283        C  0.71564503  0.83409780  0.64355653    -0.51400
C284        C  0.69276249  0.85655894  0.62109648     0.12600
C285        C  0.66602638  0.83408957  0.69318429    -0.50900
C286        C  0.64355766  0.85655079  0.67030970     0.13200
H287        H  0.66500702  0.75333703  0.64253395     0.17700
H288        H  0.63127041  0.86883275  0.60882257     0.03500
H289        H  0.74677701  0.83512536  0.64252874     0.18000
H290        H  0.66500476  0.83511193  0.72431709     0.17800
O291        O  0.68266550  0.02722100  0.45045951    -0.68700
O292        O  0.68264032  0.95033639  0.52732023    -0.68900
O293        O  0.68264920  0.02720850  0.52733048    -0.68700
O294        O  0.68265686  0.95034892  0.45044794    -0.68800
O295        O  0.74508745  0.95012710  0.45024655    -0.68700
O296        O  0.74507979  0.02741658  0.52755861    -0.68700
O297        O  0.74507075  0.95011490  0.52754874    -0.68700
O298        O  0.74509606  0.02742900  0.45025806    -0.68900
V299        V  0.68391485  0.98877831  0.48888983     1.35200
V300        V  0.74391842  0.98877171  0.48890277     1.35200
C301        C  0.71376611  0.04033915  0.43735055     0.80600
C302        C  0.71373244  0.93721325  0.54044434     0.80600
C303        C  0.71374440  0.04032267  0.54045584     0.80500
C304        C  0.71375459  0.93722998  0.43733365     0.80500
O305        O  0.47268570  0.95012606  0.72256843    -0.68700
O306        O  0.55000523  0.02741082  0.72257568    -0.68900
O307        O  0.47270417  0.02742730  0.72255717    -0.68700
O308        O  0.54998974  0.95010857  0.72258703    -0.68800
O309        O  0.54978958  0.95031511  0.66015752    -0.68700
O310        O  0.47293313  0.02720408  0.66012772    -0.68700
O311        O  0.54980508  0.02718787  0.66014616    -0.68700
O312        O  0.47291535  0.95033217  0.66013894    -0.68900
V313        V  0.51134655  0.98876757  0.72140695     1.35200
V314        V  0.51136058  0.98875951  0.66140439     1.35200
C315        C  0.45978511  0.93722240  0.69123366     0.80600
C316        C  0.56291699  0.04030968  0.69124342     0.80600
C317        C  0.45981195  0.04033087  0.69121874     0.80500
C318        C  0.56289925  0.93719892  0.69125841     0.80500
O319        O  0.34008903  0.02725079  0.45045981    -0.68700
O320        O  0.34004086  0.95036726  0.52732030    -0.68900
O321        O  0.34006049  0.95037988  0.45044860    -0.68700
O322        O  0.34006897  0.02723942  0.52732995    -0.68800
O323        O  0.27763837  0.02747743  0.52752904    -0.68700
O324        O  0.27762986  0.95018723  0.45021701    -0.68700
O325        O  0.27761024  0.95017424  0.52751963    -0.68700
O326        O  0.27765860  0.02748862  0.45022854    -0.68900
V327        V  0.33880279  0.98880949  0.48888963     1.35200
V328        V  0.27879918  0.98883118  0.48887412     1.35200
C329        C  0.30900100  0.04038299  0.43733551     0.80600
C330        C  0.30893679  0.93725732  0.54042902     0.80600
C331        C  0.30896289  0.93727617  0.43731872     0.80500
C332        C  0.30897424  0.04036951  0.54043976     0.80500
O333        O  0.47297601  0.02726054  0.31760830    -0.68700
O334        O  0.54983214  0.95037271  0.31758719    -0.68900
O335        O  0.54984847  0.02724425  0.31760924    -0.68700
O336        O  0.47295856  0.95039022  0.31758625    -0.68800
O337        O  0.47274368  0.95019349  0.25515666    -0.68700
O338        O  0.55006413  0.02747767  0.25517975    -0.68700
O339        O  0.55004776  0.95017554  0.25515766    -0.68700
O340        O  0.47276147  0.02749394  0.25517879    -0.68900
V341        V  0.51140403  0.98881713  0.31633577     1.35200
V342        V  0.51140451  0.98883470  0.25633315     1.35200
C343        C  0.45985958  0.04038980  0.28651608     0.80600
C344        C  0.56294861  0.93726052  0.28648800     0.80600
C345        C  0.56296941  0.04036970  0.28651737     0.80500
C346        C  0.45983542  0.93728551  0.28648669     0.80500
O347        O  0.54999408  0.75508910  0.52752713    -0.68700
O348        O  0.47270388  0.75514330  0.45021399    -0.68900
O349        O  0.55000572  0.75511784  0.45022514    -0.68700
O350        O  0.47269039  0.75511477  0.52751397    -0.68800
O351        O  0.47292574  0.81754435  0.52732183    -0.68700
O352        O  0.54981186  0.81754739  0.45046184    -0.68700
O353        O  0.47293875  0.81757285  0.45045064    -0.68700
O354        O  0.54980011  0.81751883  0.52733451    -0.68900
V355        V  0.51134912  0.75628147  0.48887068     1.35200
V356        V  0.51136894  0.81628413  0.48889201     1.35200
C357        C  0.56290670  0.78641364  0.54044356     0.80600
C358        C  0.45981212  0.78648566  0.43731992     0.80600
C359        C  0.56292094  0.78645176  0.43733325     0.80500
C360        C  0.45979298  0.78644773  0.54042511     0.80500
C361        C  0.83002778  0.30734190  0.67019944     0.89600
C362        C  0.85672465  0.28440603  0.64350788    -0.50600
C363        C  0.87919386  0.30727432  0.62104041     0.12500
C364        C  0.87304697  0.35033174  0.62718306     0.23500
C365        C  0.85673046  0.33404163  0.69311751    -0.51400
C366        C  0.87919883  0.35649508  0.67023636     0.12600
C367        C  0.80711007  0.33403878  0.64349267    -0.50900
C368        C  0.82999319  0.35649252  0.62102575     0.13200
H369        H  0.85774407  0.25327418  0.64249297     0.17700
H370        H  0.89148620  0.36875948  0.60874555     0.03500
H371        H  0.85775072  0.33507567  0.72424999     0.18000
H372        H  0.77597801  0.33507188  0.64246997     0.17800
C373        C  0.83008644  0.30740392  0.30748014     0.89600
C374        C  0.85678824  0.33410099  0.28455667    -0.50600
C375        C  0.87925730  0.35655748  0.30743504     0.12500
C376        C  0.87310660  0.35039852  0.35048949     0.23500
C377        C  0.85678326  0.28447143  0.33417382    -0.51400
C378        C  0.87925254  0.30734163  0.35663764     0.12600
C379        C  0.80716961  0.33410334  0.33418336    -0.50900
C380        C  0.83005300  0.35655930  0.35664655     0.13200
H381        H  0.85780665  0.33513181  0.25342468     0.17700
H382        H  0.89154570  0.36882764  0.36892506     0.03500
H383        H  0.85779983  0.25333933  0.33519574     0.18000
H384        H  0.77603789  0.33513381  0.33520929     0.17800
C385        C  0.83001659  0.67014164  0.30751802     0.89600
C386        C  0.85672084  0.69305795  0.33421871    -0.50600
C387        C  0.87918465  0.67017414  0.35667502     0.12500
C388        C  0.87302677  0.62712144  0.35051385     0.23500
C389        C  0.85671191  0.64344514  0.28458656    -0.51400
C390        C  0.87917621  0.62097617  0.30745758     0.12600
C391        C  0.80709305  0.64343916  0.33421473    -0.50900
C392        C  0.82997175  0.62097008  0.35667136     0.13200
H393        H  0.85774744  0.72418965  0.33524905     0.17700
H394        H  0.89146180  0.60868262  0.36894272     0.03500
H395        H  0.85773484  0.64242906  0.25345451     0.18000
H396        H  0.77596167  0.64241844  0.33524311     0.17800
C397        C  0.82999037  0.67009774  0.67024842     0.89600
C398        C  0.85668121  0.64339468  0.69317835    -0.50600
C399        C  0.87913641  0.62091837  0.67030612     0.12500
C400        C  0.87298361  0.62706396  0.62725035     0.23500
C401        C  0.85669767  0.69300537  0.64354306    -0.51400
C402        C  0.87915264  0.67011454  0.62108554     0.12600
C403        C  0.80705627  0.64339989  0.64355596    -0.50900
C404        C  0.82992635  0.62092354  0.62109813     0.13200
H405        H  0.85770771  0.64237951  0.72431078     0.17700
H406        H  0.89141224  0.60861886  0.60881995     0.03500
H407        H  0.85773349  0.72413572  0.64251153     0.18000
H408        H  0.77592366  0.64238780  0.64253071     0.17800
O409        O  0.04983293  0.66002007  0.45045425    -0.68700
O410        O  0.97294485  0.65998154  0.52731270    -0.68900
O411        O  0.97295853  0.66001116  0.45044047    -0.68700
O412        O  0.04981908  0.65999051  0.52732558    -0.68800
O413        O  0.05002664  0.72242011  0.52756266    -0.68700
O414        O  0.97273668  0.72244084  0.45024945    -0.68700
O415        O  0.97272380  0.72241100  0.52755030    -0.68700
O416        O  0.05004020  0.72244974  0.45026284    -0.68900
V417        V  0.01138856  0.66126250  0.48888364     1.35200
V418        V  0.01138178  0.72126517  0.48890585     1.35200
C419        C  0.06295169  0.69112280  0.43735123     0.80600
C420        C  0.95982069  0.69107133  0.54044011     0.80600
C421        C  0.95983812  0.69111087  0.43733228     0.80500
C422        C  0.06293304  0.69108338  0.54045577     0.80500
O423        O  0.97294227  0.45030490  0.66012344    -0.68700
O424        O  0.04979694  0.52719541  0.66015667    -0.68900
O425        O  0.04981547  0.45032545  0.66012287    -0.68700
O426        O  0.97292221  0.52717689  0.66015724    -0.68800
O427        O  0.97270800  0.52736439  0.72258680    -0.68700
O428        O  0.05003053  0.45008281  0.72255234    -0.68700
O429        O  0.05001295  0.52738213  0.72258624    -0.68700
O430        O  0.97272785  0.45006260  0.72255288    -0.68900
V431        V  0.01136881  0.48875037  0.66140191     1.35200
V432        V  0.01136939  0.48872373  0.72140450     1.35200
C433        C  0.95982807  0.43716876  0.69121374     0.80600
C434        C  0.06291659  0.54029946  0.69125816     0.80600
C435        C  0.06293902  0.43719844  0.69121310     0.80500
C436        C  0.95980006  0.54027793  0.69125882     0.80500
O437        O  0.97298589  0.45036179  0.31758745    -0.68700
O438        O  0.04983989  0.52725268  0.31761441    -0.68900
O439        O  0.97296547  0.52723386  0.31759165    -0.68700
O440        O  0.04985819  0.45038219  0.31761009    -0.68800
O441        O  0.05009064  0.45017113  0.25518059    -0.68700
O442        O  0.97276863  0.52745338  0.25516213    -0.68700
O443        O  0.05007320  0.52747134  0.25518498    -0.68700
O444        O  0.97278858  0.45015109  0.25515788    -0.68900
V445        V  0.01141243  0.48880811  0.31633899     1.35200
V446        V  0.01142966  0.48881208  0.25633641     1.35200
C447        C  0.95988083  0.43724062  0.28648708     0.80600
C448        C  0.06296742  0.54037319  0.28652316     0.80600
C449        C  0.95985159  0.54035044  0.28649279     0.80500
C450        C  0.06298868  0.43726918  0.28651726     0.80500
O451        O  0.97298666  0.31746021  0.45043294    -0.68700
O452        O  0.04984594  0.31746976  0.52731650    -0.68900
O453        O  0.04985899  0.31749738  0.45044697    -0.68700
O454        O  0.97297251  0.31743276  0.52730414    -0.68800
O455        O  0.97278664  0.25500306  0.52749840    -0.68700
O456        O  0.05010380  0.25506792  0.45021021    -0.68700
O457        O  0.05009129  0.25504010  0.52751014    -0.68700
O458        O  0.97280072  0.25503054  0.45019611    -0.68900
V459        V  0.01141633  0.31620296  0.48887494     1.35200
V460        V  0.01144480  0.25620026  0.48885432     1.35200
C461        C  0.95988550  0.28636302  0.43730082     0.80600
C462        C  0.06297992  0.28637573  0.54042370     0.80600
C463        C  0.06299558  0.28641262  0.43732106     0.80500
C464        C  0.95986529  0.28632640  0.54040947     0.80500
O465        O  0.84012629  0.45031362  0.52729883    -0.68700
O466        O  0.84011473  0.52720731  0.45044759    -0.68900
O467        O  0.84009063  0.52718616  0.52732023    -0.68700
O468        O  0.84015023  0.45033558  0.45042829    -0.68800
O469        O  0.77771975  0.45009226  0.45019414    -0.68700
O470        O  0.77765995  0.52737262  0.52751565    -0.68700
O471        O  0.77768419  0.52739352  0.45021306    -0.68700
O472        O  0.77769578  0.45007007  0.52749391    -0.68900
V473        V  0.83885861  0.48876046  0.48887349     1.35200
V474        V  0.77885502  0.48873297  0.48885468     1.35200
C475        C  0.80903177  0.43717551  0.54040211     0.80600
C476        C  0.80901641  0.54031378  0.43732142     0.80600
C477        C  0.80898426  0.54028664  0.54043275     0.80500
C478        C  0.80906370  0.43720565  0.43729823     0.80500
C479        C  0.19279253  0.30742198  0.67022850     0.89600
C480        C  0.21572518  0.33411381  0.64353045    -0.50600
C481        C  0.19285459  0.35657164  0.62105519     0.12500
C482        C  0.14979684  0.35041939  0.62719730     0.23500
C483        C  0.16608688  0.33412555  0.69313801    -0.51400
C484        C  0.14362990  0.35658242  0.67024867     0.12600
C485        C  0.16610103  0.28449133  0.64352861    -0.50900
C486        C  0.14364402  0.30736296  0.62105390     0.13200
H487        H  0.24685785  0.33513873  0.64251720     0.17700
H488        H  0.13136669  0.36884963  0.60875288     0.03500
H489        H  0.16505100  0.33515410  0.72426912     0.18000
H490        H  0.16507397  0.25335929  0.64251556     0.17800
C491        C  0.19278374  0.67018397  0.30754064     0.89600
C492        C  0.16608680  0.64347993  0.28462066    -0.50600
C493        C  0.14363670  0.62100663  0.30750059     0.12500
C494        C  0.14980139  0.62715472  0.35055438     0.23500
C495        C  0.16608326  0.69309509  0.33424983    -0.51400
C496        C  0.14363325  0.67020608  0.35671545     0.12600
C497        C  0.21572434  0.64348943  0.33422976    -0.50900
C498        C  0.19286085  0.62101556  0.35669618     0.13200
H499        H  0.16505110  0.64246338  0.25348866     0.17700
H500        H  0.13137727  0.60871071  0.36899123     0.03500
H501        H  0.16504588  0.72422643  0.33527566     0.18000
H502        H  0.24685715  0.64247681  0.33524602     0.17800
C503        C  0.19273958  0.67011213  0.67028398     0.89600
C504        C  0.21568311  0.64342041  0.64359547    -0.50600
C505        C  0.19282209  0.62094593  0.62112773     0.12500
C506        C  0.14976187  0.62708129  0.62726763     0.23500
C507        C  0.16603875  0.69302176  0.64357438    -0.51400
C508        C  0.14359155  0.67013251  0.62110781     0.12600
C509        C  0.16604366  0.64340521  0.69320296    -0.50900
C510        C  0.14359573  0.62093103  0.67032119     0.13200
H511        H  0.24681540  0.64241251  0.64257819     0.17700
H512        H  0.13134049  0.60863812  0.60882953     0.03500
H513        H  0.16500020  0.72415316  0.64254783     0.18000
H514        H  0.16500604  0.64238859  0.72433574     0.17800
C515        C  0.19280429  0.30745598  0.30750921     0.89600
C516        C  0.16611002  0.28453619  0.33421542    -0.50600
C517        C  0.14365891  0.30741622  0.35668654     0.12500
C518        C  0.14981963  0.35047046  0.35053321     0.23500
C519        C  0.16610308  0.33416071  0.28459508    -0.51400
C520        C  0.14365238  0.35662711  0.30748061     0.12600
C521        C  0.21574385  0.33414847  0.33420029    -0.50900
C522        C  0.19287897  0.35661520  0.35667154     0.13200
H523        H  0.16507784  0.25340380  0.33523607     0.17700
H524        H  0.13139474  0.36890762  0.36897441     0.03500
H525        H  0.16506743  0.33518504  0.25346324     0.18000
H526        H  0.24687683  0.33516658  0.33521272     0.17800
O527        O  0.18274692  0.52722179  0.52732170    -0.68700
O528        O  0.18276776  0.45037314  0.45043061    -0.68900
O529        O  0.18275350  0.45035168  0.52730044    -0.68700
O530        O  0.18276096  0.52724345  0.45045011    -0.68800
O531        O  0.24519152  0.52746488  0.45024559    -0.68700
O532        O  0.24518405  0.45014134  0.52752804    -0.68700
O533        O  0.24519845  0.45016249  0.45022649    -0.68700
O534        O  0.24517744  0.52744318  0.52754934    -0.68900
V535        V  0.18401957  0.48879793  0.48887585     1.35200
V536        V  0.24402319  0.48880322  0.48888705     1.35200
C537        C  0.21383912  0.54033799  0.54045154     0.80600
C538        C  0.21386705  0.43725953  0.43731544     0.80600
C539        C  0.21384798  0.43723180  0.54042140     0.80500
C540        C  0.21385786  0.54036743  0.43733904     0.80500
C541        C  0.26141195  0.23881285  0.23887095     0.00600
C542        C  0.76140908  0.23878841  0.23887911     0.00600
C543        C  0.26139721  0.73881399  0.23888432     0.00600
C544        C  0.26138973  0.23878563  0.73888694     0.00600
C545        C  0.76138209  0.23876530  0.73887714     0.00600
C546        C  0.76139565  0.73880022  0.23889455     0.00600
C547        C  0.26136509  0.73877862  0.73888915     0.00600
C548        C  0.19277962  0.17020648  0.17021640     0.89600
C549        C  0.16608206  0.19313599  0.14352081    -0.50600
C550        C  0.14361671  0.17026333  0.12105537     0.12500
C551        C  0.14976702  0.12720678  0.12720425     0.23500
C552        C  0.16607934  0.14350717  0.19313753    -0.51400
C553        C  0.14361408  0.12104852  0.17025884     0.12600
C554        C  0.21570166  0.14350952  0.14351466    -0.50900
C555        C  0.19282229  0.12105073  0.12104955     0.13200
H556        H  0.16506039  0.22426844  0.14250068     0.17700
H557        H  0.13133080  0.10877580  0.10876861     0.03500
H558        H  0.16505692  0.14247863  0.22426947     0.18000
H559        H  0.24683422  0.14248228  0.14249155     0.17800
C560        C  0.19273414  0.17014443  0.80748283     0.89600
C561        C  0.16602838  0.14344115  0.78457142    -0.50600
C562        C  0.14356844  0.12098540  0.80746000     0.12500
C563        C  0.14973193  0.12715102  0.85051171     0.23500
C564        C  0.16604264  0.19307748  0.83418006    -0.51400
C565        C  0.14358254  0.17020828  0.85665368     0.12600
C566        C  0.21566219  0.14345164  0.83418340    -0.50900
C567        C  0.19278855  0.12099612  0.85665680     0.13200
H568        H  0.16499883  0.14240786  0.75343905     0.17700
H569        H  0.13130033  0.10872288  0.86895559     0.03500
H570        H  0.16502092  0.22420931  0.83519520     0.18000
H571        H  0.24679521  0.14242490  0.83520009     0.17800
C572        C  0.83003933  0.17017274  0.17023235     0.89600
C573        C  0.80713304  0.14346730  0.14352487    -0.50600
C574        C  0.83002637  0.12101472  0.12106737     0.12500
C575        C  0.87307745  0.12718480  0.12723486     0.23500
C576        C  0.85674107  0.14348268  0.19316268    -0.51400
C577        C  0.87921947  0.12103002  0.17029130     0.12600
C578        C  0.85673726  0.19310933  0.14354354    -0.50900
C579        C  0.87921579  0.17024273  0.12108570     0.13200
H580        H  0.77600203  0.14243054  0.14249223     0.17700
H581        H  0.89152496  0.10875855  0.10880489     0.03500
H582        H  0.85775406  0.14245478  0.22429460     0.18000
H583        H  0.85774772  0.22424191  0.14252022     0.17800
C584        C  0.19278496  0.80746997  0.17025730     0.89600
C585        C  0.16609883  0.83417108  0.19319261    -0.50600
C586        C  0.14364505  0.85665327  0.17032523     0.12500
C587        C  0.14979504  0.85051542  0.12726772     0.23500
C588        C  0.16607447  0.78456941  0.14355020    -0.49000
C589        C  0.14362100  0.80746619  0.12109708     0.12600
C590        C  0.21572129  0.83416872  0.14356867    -0.50900
C591        C  0.19285332  0.85665104  0.12111500     0.13200
H592        H  0.16507313  0.83517971  0.22432536     0.17700
H593        H  0.13136793  0.86896547  0.10884112     0.03500
H594        H  0.16503518  0.75343815  0.14251452     0.18000
H595        H  0.24685351  0.83517604  0.14254171     0.17800
C596        C  0.83005062  0.80746604  0.17031482     0.89600
C597        C  0.85674606  0.83416146  0.19324771    -0.50600
C598        C  0.87921203  0.85662988  0.17037758     0.12500
C599        C  0.87306372  0.85048446  0.12732075     0.23500
C600        C  0.80712910  0.83416882  0.14361704    -0.51400
C601        C  0.83000928  0.85663634  0.12116092     0.12600
C602        C  0.85675405  0.78454877  0.14361478    -0.50900
C603        C  0.87921892  0.80743162  0.12115891     0.13200
H604        H  0.85776673  0.83517841  0.22437996     0.17700
H605        H  0.89149990  0.86892264  0.10889159     0.03500
H606        H  0.77599757  0.83518717  0.14258377     0.18000
H607        H  0.85777617  0.75341718  0.14258127     0.17800
O608        O  0.97278155  0.95019136  0.22265579    -0.68700
O609        O  0.05007857  0.02750059  0.22260274    -0.68900
O610        O  0.97277612  0.02749356  0.22262144    -0.68700
O611        O  0.05008614  0.95019930  0.22263753    -0.68800
O612        O  0.04985519  0.95038757  0.16020792    -0.68700
O613        O  0.97297669  0.02725109  0.16019189    -0.68700
O614        O  0.04984827  0.02725796  0.16017334    -0.68700
O615        O  0.97298205  0.95038012  0.16022620    -0.68900
V616        V  0.01143024  0.98884544  0.22146457     1.35200
V617        V  0.01141575  0.98881944  0.16146194     1.35200
C618        C  0.95987055  0.93727445  0.19133047     0.80600
C619        C  0.06297310  0.04039148  0.19125991     0.80600
C620        C  0.95986529  0.04038277  0.19128469     0.80500
C621        C  0.06298425  0.93728532  0.19130608     0.80500
C622        C  0.19276469  0.80741813  0.80754654     0.89600
C623        C  0.16606481  0.78450208  0.83425193    -0.50600
C624        C  0.14361094  0.80738640  0.85671707     0.12500
C625        C  0.14977471  0.85043896  0.85055987     0.23500
C626        C  0.16606666  0.83412128  0.78462610    -0.51400
C627        C  0.14361282  0.85659015  0.80750629     0.12600
C628        C  0.21570061  0.83411334  0.83423898    -0.50900
C629        C  0.19283289  0.85658318  0.85670493     0.13200
H630        H  0.16503028  0.75337012  0.83527541     0.17700
H631        H  0.13134716  0.86887895  0.86899631     0.03500
H632        H  0.16503296  0.83514032  0.75349502     0.18000
H633        H  0.24683414  0.83513071  0.83525628     0.17800
O634        O  0.18272479  0.95038383  0.02732751    -0.68700
O635        O  0.18269514  0.02723157  0.95043337    -0.68900
O636        O  0.18271582  0.95036024  0.95045605    -0.68700
O637        O  0.18270391  0.02725472  0.02730357    -0.68800
O638        O  0.24513444  0.02748671  0.02751230    -0.68700
O639        O  0.24514636  0.95016163  0.95023338    -0.68700
O640        O  0.24512571  0.02746400  0.95021129    -0.68700
O641        O  0.24515547  0.95018491  0.02753611    -0.68900
V642        V  0.18397203  0.98880771  0.98887989     1.35200
V643        V  0.24397565  0.98882382  0.98887328     1.35200
C644        C  0.21382579  0.93727817  0.04044742     0.80600
C645        C  0.21378624  0.04035581  0.93730893     0.80600
C646        C  0.21381375  0.93724629  0.93733734     0.80500
C647        C  0.21379793  0.04038574  0.04041463     0.80500
C648        C  0.83001723  0.17014377  0.80751713     0.89600
C649        C  0.80709719  0.14344382  0.83421880    -0.50600
C650        C  0.82997896  0.12098604  0.85668318     0.12500
C651        C  0.87303310  0.12714644  0.85052909     0.23500
C652        C  0.85671346  0.19307406  0.83421256    -0.51400
C653        C  0.87918059  0.17020310  0.85667770     0.12600
C654        C  0.85671919  0.14344599  0.78459545    -0.50900
C655        C  0.87918543  0.12098803  0.80747516     0.13200
H656        H  0.77596531  0.14241266  0.83524100     0.17700
H657        H  0.89147069  0.10871639  0.86896504     0.03500
H658        H  0.85773293  0.22420742  0.83523301     0.18000
H659        H  0.85773953  0.14241567  0.75346428     0.17800
O660        O  0.05004084  0.22254424  0.95020153    -0.68700
O661        O  0.97274987  0.22255930  0.02751504    -0.68900
O662        O  0.05005304  0.22256350  0.02750345    -0.68700
O663        O  0.97273748  0.22253956  0.95021266    -0.68800
O664        O  0.97295640  0.16011000  0.95044472    -0.68700
O665        O  0.04984080  0.16013380  0.02730357    -0.68700
O666        O  0.97296918  0.16012958  0.02731559    -0.68700
O667        O  0.04982831  0.16011458  0.95043329    -0.68900
V668        V  0.01139529  0.22138694  0.98885839     1.35200
V669        V  0.01139853  0.16138419  0.98887393     1.35200
C670        C  0.06294387  0.19120745  0.93730517     0.80600
C671        C  0.95985112  0.19122752  0.04042864     0.80600
C672        C  0.06295998  0.19123316  0.04041256     0.80500
C673        C  0.95983396  0.19120137  0.93731958     0.80500
C674        C  0.83000324  0.80738116  0.80753932     0.89600
C675        C  0.80707444  0.83407888  0.83423647    -0.50600
C676        C  0.82994854  0.85654231  0.85670349     0.12500
C677        C  0.87300457  0.85039055  0.85055488     0.23500
C678        C  0.85670503  0.83408263  0.78462061    -0.51400
C679        C  0.87916422  0.85654595  0.80750162     0.12600
C680        C  0.85670070  0.78445797  0.83424240    -0.50900
C681        C  0.87915993  0.80733643  0.85670926     0.13200
H682        H  0.77594120  0.83510216  0.83525607     0.17700
H683        H  0.89143609  0.86882546  0.86899182     0.03500
H684        H  0.85773387  0.83510780  0.75348931     0.18000
H685        H  0.85772705  0.75332568  0.83526567     0.17800
O686        O  0.05005110  0.75516021  0.02757119    -0.68700
O687        O  0.97273635  0.75509469  0.95028147    -0.68900
O688        O  0.05004027  0.75511847  0.95027164    -0.68700
O689        O  0.97274969  0.75513605  0.02758370    -0.68800
O690        O  0.97294512  0.81756564  0.02733564    -0.68700
O691        O  0.04980654  0.81754814  0.95045193    -0.68700
O692        O  0.97293190  0.81752438  0.95046255    -0.68700
O693        O  0.04981819  0.81758965  0.02732319    -0.68900
V694        V  0.01139362  0.75629261  0.98892609     1.35200
V695        V  0.01137541  0.81629528  0.98889367     1.35200
C696        C  0.06294828  0.78650425  0.04045559     0.80600
C697        C  0.95982073  0.78641734  0.93736265     0.80600
C698        C  0.06293512  0.78644892  0.93735153     0.80500
C699        C  0.95984035  0.78647228  0.04047450     0.80500
O700        O  0.84014030  0.95034533  0.02732498    -0.68700
O701        O  0.84012897  0.02719391  0.95042915    -0.68900
O702        O  0.84015702  0.02721663  0.02730038    -0.68700
O703        O  0.84011251  0.95032085  0.95045154    -0.68800
O704        O  0.77768194  0.95011940  0.95025869    -0.68700
O705        O  0.77772660  0.02744397  0.02753695    -0.68700
O706        O  0.77769835  0.02742196  0.95023696    -0.68700
O707        O  0.77770975  0.95014390  0.02756168    -0.68900
V708        V  0.83887293  0.98876900  0.98887657     1.35200
V709        V  0.77886936  0.98878161  0.98889780     1.35200
C710        C  0.80904560  0.93724041  0.04046102     0.80600
C711        C  0.80903043  0.04031759  0.93732086     0.80600
C712        C  0.80906779  0.04034507  0.04042571     0.80500
C713        C  0.80900857  0.93720554  0.93734728     0.80500
O714        O  0.97271636  0.02740249  0.75519201    -0.68700
O715        O  0.05002530  0.95010833  0.75520509    -0.68900
O716        O  0.97272171  0.95010018  0.75520434    -0.68700
O717        O  0.05001790  0.02740905  0.75519308    -0.68800
O718        O  0.04980312  0.02720326  0.81762259    -0.68700
O719        O  0.97293587  0.95032414  0.81763376    -0.68700
O720        O  0.04980989  0.95033178  0.81763462    -0.68700
O721        O  0.97293074  0.02719696  0.81762159    -0.68900
V722        V  0.01137003  0.98875477  0.75636377     1.35200
V723        V  0.01136964  0.98876350  0.81636636     1.35200
C724        C  0.95981374  0.04031179  0.78652336     0.80600
C725        C  0.06293187  0.93721254  0.78654075     0.80600
C726        C  0.95981824  0.93720026  0.78653971     0.80500
C727        C  0.06292024  0.04031878  0.78652467     0.80500
C728        C  0.76137849  0.73876065  0.73887721     0.00600
C729        C  0.81584216  0.88401232  0.88417168    -0.10200
C730        C  0.80984703  0.90810012  0.90825429    -0.11700
C731        C  0.90662988  0.79323625  0.88418144    -0.10200
C732        C  0.93071731  0.78724777  0.90826673    -0.11700
C733        C  0.90663558  0.88401611  0.79340133    -0.10200
C734        C  0.93072012  0.90810036  0.78739833    -0.11700
C735        C  0.78568401  0.76305918  0.76319116    -0.10200
C736        C  0.80568073  0.78305480  0.78320375    -0.11700
C737        C  0.90664796  0.18431759  0.88414380    -0.10200
C738        C  0.93073194  0.19033479  0.90822461    -0.11700
C739        C  0.80988039  0.06941758  0.90822405    -0.10200
C740        C  0.81587919  0.09350840  0.88414594    -0.11700
C741        C  0.93072137  0.06941627  0.78737316    -0.10200
C742        C  0.90664618  0.09350964  0.79337337    -0.11700
C743        C  0.21296056  0.90814043  0.90824607    -0.10200
C744        C  0.20694995  0.88405270  0.88416762    -0.11700
C745        C  0.11613464  0.88405126  0.79340436    -0.10200
C746        C  0.09204032  0.90812451  0.78739987    -0.11700
C747        C  0.09203927  0.78729599  0.90825848    -0.10200
C748        C  0.11613228  0.79329094  0.88418138    -0.11700
C749        C  0.90668256  0.88409467  0.18449014    -0.10200
C750        C  0.93076977  0.90817657  0.19049213    -0.11700
C751        C  0.81590720  0.88409279  0.09367800    -0.10200
C752        C  0.80990385  0.90816029  0.06957756    -0.11700
C753        C  0.93075343  0.78733196  0.06958418    -0.10200
C754        C  0.90668021  0.79333357  0.09367917    -0.11700
C755        C  0.20697055  0.88411395  0.09364643    -0.10200
C756        C  0.21297908  0.90819035  0.06955634    -0.11700
C757        C  0.09208992  0.90819449  0.19045433    -0.10200
C758        C  0.11617808  0.88411709  0.18444288    -0.11700
C759        C  0.11614208  0.79338295  0.09362676    -0.10200
C760        C  0.09205282  0.78738028  0.06954769    -0.11700
C761        C  0.90667983  0.18436172  0.09361917    -0.10200
C762        C  0.93075852  0.19037479  0.06953249    -0.11700
C763        C  0.90668654  0.09356443  0.18440566    -0.10200
C764        C  0.93076792  0.06948128  0.19042141    -0.11700
C765        C  0.80993704  0.06945090  0.06951617    -0.10200
C766        C  0.81593873  0.09353925  0.09359602    -0.11700
C767        C  0.20690121  0.09353047  0.88412426    -0.10200
C768        C  0.21291831  0.06944947  0.90820716    -0.11700
C769        C  0.11611925  0.18432570  0.88412107    -0.10200
C770        C  0.09203899  0.19034383  0.90820450    -0.11700
C771        C  0.09201563  0.06942140  0.78737452    -0.10200
C772        C  0.11609777  0.09350994  0.79336929    -0.11700
C773        C  0.21293684  0.06949248  0.06950415    -0.10200
C774        C  0.20692720  0.09358007  0.09358254    -0.11700
C775        C  0.11614762  0.09357767  0.18436551    -0.10200
C776        C  0.09206811  0.06949280  0.19038369    -0.11700
C777        C  0.09206270  0.19038366  0.06950730    -0.10200
C778        C  0.11614812  0.18437512  0.09358888    -0.11700
C779        C  0.23707033  0.76308263  0.76320456    -0.10200
C780        C  0.21707993  0.78308510  0.78321435    -0.11700
C781        C  0.80571948  0.78313115  0.19463045    -0.10200
C782        C  0.78571152  0.76311938  0.21461420    -0.11700
C783        C  0.78568587  0.21446457  0.76318651    -0.10200
C784        C  0.80568710  0.19446548  0.78318886    -0.11700
C785        C  0.23707014  0.21446966  0.76316367    -0.10200
C786        C  0.21706041  0.19446493  0.78315101    -0.11700
C787        C  0.21710003  0.78312255  0.19457441    -0.10200
C788        C  0.23709337  0.76311287  0.21457373    -0.11700
C789        C  0.78569836  0.21448301  0.21456138    -0.10200
C790        C  0.80569853  0.19448771  0.19455526    -0.11700
C791        C  0.23710821  0.21451814  0.21455688    -0.10200
C792        C  0.21710776  0.19452610  0.19454753    -0.11700
C793        C  0.20700105  0.38408189  0.38413309    -0.10200
C794        C  0.21301579  0.40816482  0.40821448    -0.11700
C795        C  0.23710913  0.26311936  0.26317258    -0.10200
C796        C  0.21711656  0.28312503  0.28317516    -0.11700
C797        C  0.21297260  0.56942243  0.56956289    -0.10200
C798        C  0.20694936  0.59349197  0.59365573    -0.11700
C799        C  0.23705097  0.71446551  0.71460224    -0.10200
C800        C  0.21705155  0.69445316  0.69461133    -0.11700
C801        C  0.20698439  0.59355140  0.38416104    -0.10200
C802        C  0.21300147  0.56946912  0.40824353    -0.11700
C803        C  0.21709741  0.69451916  0.28320802    -0.10200
C804        C  0.23709318  0.71451689  0.26319823    -0.11700
C805        C  0.21298671  0.40812584  0.56951210    -0.10200
C806        C  0.20697049  0.38403919  0.59359021    -0.11700
C807        C  0.23710008  0.26309885  0.71457778    -0.10200
C808        C  0.21711004  0.28310085  0.69456822    -0.11700
C809        C  0.11618849  0.29331116  0.38415399    -0.10200
C810        C  0.09210133  0.28729260  0.40823087    -0.11700
C811        C  0.09208265  0.28723622  0.56951714    -0.10200
C812        C  0.11617197  0.29324947  0.59359300    -0.11700
C813        C  0.11618056  0.38409731  0.29338391    -0.10200
C814        C  0.09209365  0.40817781  0.28737888    -0.11700
C815        C  0.11616035  0.59354390  0.29339748    -0.10200
C816        C  0.09206965  0.56946788  0.28738839    -0.11700
C817        C  0.11611642  0.59346811  0.68441958    -0.10200
C818        C  0.09202160  0.56939248  0.69041531    -0.11700
C819        C  0.11614691  0.38404304  0.68434128    -0.10200
C820        C  0.09205057  0.40811389  0.69034634    -0.11700
C821        C  0.09203143  0.69022287  0.56955403    -0.10200
C822        C  0.11611796  0.68422353  0.59363640    -0.11700
C823        C  0.11615495  0.68429529  0.38418391    -0.10200
C824        C  0.09206085  0.69028353  0.40826207    -0.11700
C825        C  0.90662870  0.68420378  0.59361469    -0.10200
C826        C  0.93071676  0.69020446  0.56953361    -0.11700
C827        C  0.90660440  0.59344971  0.68441549    -0.10200
C828        C  0.93069287  0.56936886  0.69041575    -0.11700
C829        C  0.81581466  0.59345787  0.59362888    -0.10200
C830        C  0.80981810  0.56937756  0.56953950    -0.11700
C831        C  0.80567333  0.69444175  0.69457031    -0.10200
C832        C  0.78568106  0.71445431  0.71456950    -0.11700
C833        C  0.90665699  0.68427009  0.38414548    -0.10200
C834        C  0.93074172  0.69026481  0.40823113    -0.11700
C835        C  0.81586841  0.59350027  0.38414116    -0.10200
C836        C  0.80986730  0.56941552  0.40822536    -0.11700
C837        C  0.90665007  0.59351486  0.29334615    -0.10200
C838        C  0.93074244  0.56943912  0.28734189    -0.11700
C839        C  0.80568902  0.69447645  0.28319774    -0.10200
C840        C  0.78569143  0.71448521  0.26320009    -0.11700
C841        C  0.81595234  0.38402929  0.38411519    -0.10200
C842        C  0.80993982  0.40811154  0.40819758    -0.11700
C843        C  0.90671565  0.29322714  0.38410763    -0.10200
C844        C  0.93079387  0.28721668  0.40819567    -0.11700
C845        C  0.90671956  0.38403477  0.29333202    -0.10200
C846        C  0.93079402  0.40812969  0.28733267    -0.11700
C847        C  0.80574921  0.28308548  0.28315670    -0.10200
C848        C  0.78573227  0.26309007  0.26316711    -0.11700
C849        C  0.90666336  0.38397019  0.68433783    -0.10200
C850        C  0.93073938  0.40806081  0.69034669    -0.11700
C851        C  0.81589408  0.38396950  0.59356134    -0.10200
C852        C  0.80989067  0.40806370  0.56948737    -0.11700
C853        C  0.93075846  0.28716019  0.56950132    -0.10200
C854        C  0.90666716  0.29316002  0.59357948    -0.11700
C855        C  0.78568884  0.26304891  0.71455236    -0.10200
C856        C  0.80569418  0.28302992  0.69453536    -0.11700
C857        C  0.61608401  0.88401545  0.68441581    -0.10200
C858        C  0.59199688  0.90809815  0.69041433    -0.11700
C859        C  0.70686241  0.88402911  0.59362531    -0.10200
C860        C  0.71286841  0.90811289  0.56954136    -0.11700
C861        C  0.59200333  0.78724839  0.56954519    -0.10200
C862        C  0.61608846  0.79324136  0.59363108    -0.11700
C863        C  0.73707253  0.76307051  0.71457582    -0.10200
C864        C  0.71706327  0.78307000  0.69458002    -0.11700
C865        C  0.40658351  0.88405907  0.68437145    -0.10200
C866        C  0.43067581  0.90813458  0.69037621    -0.11700
C867        C  0.40658993  0.79329835  0.59358946    -0.10200
C868        C  0.43068363  0.78730050  0.56951345    -0.11700
C869        C  0.31577824  0.88406397  0.59360319    -0.10200
C870        C  0.30977636  0.90815290  0.56952308    -0.11700
C871        C  0.28565260  0.76308437  0.71456666    -0.10200
C872        C  0.30563938  0.78308913  0.69455449    -0.11700
C873        C  0.43071747  0.78735868  0.40821889    -0.10200
C874        C  0.40663614  0.79336634  0.38413371    -0.11700
C875        C  0.40663168  0.88412367  0.29333748    -0.10200
C876        C  0.43072499  0.90819860  0.28733442    -0.11700
C877        C  0.30981655  0.90818747  0.40821142    -0.10200
C878        C  0.31582676  0.88411301  0.38412041    -0.11700
C879        C  0.28569975  0.76312871  0.26317974    -0.10200
C880        C  0.30569330  0.78314400  0.28317278    -0.11700
C881        C  0.71290221  0.90813868  0.40822864    -0.10200
C882        C  0.70689826  0.88406080  0.38413922    -0.11700
C883        C  0.61610315  0.79330375  0.38414745    -0.10200
C884        C  0.59202001  0.78730640  0.40823443    -0.11700
C885        C  0.61612253  0.88406855  0.29334215    -0.10200
C886        C  0.59204245  0.90815648  0.28733678    -0.11700
C887        C  0.71706775  0.78309149  0.28319447    -0.10200
C888        C  0.73707595  0.76309275  0.26319795    -0.11700
C889        C  0.40666387  0.18437748  0.38414142    -0.10200
C890        C  0.43075074  0.19038911  0.40822018    -0.11700
C891        C  0.31588927  0.09357136  0.38416215    -0.10200
C892        C  0.30987472  0.06948617  0.40824224    -0.11700
C893        C  0.40667836  0.09357137  0.29338709    -0.10200
C894        C  0.43076331  0.06948978  0.28737942    -0.11700
C895        C  0.30570438  0.19450509  0.28318449    -0.10200
C896        C  0.28570655  0.21450247  0.26317805    -0.11700
C897        C  0.40665195  0.09353534  0.68435051    -0.10200
C898        C  0.43072502  0.06944044  0.69035386    -0.11700
C899        C  0.40664514  0.18435180  0.59359510    -0.10200
C900        C  0.43073119  0.19036394  0.56951511    -0.11700
C901        C  0.30983421  0.06947169  0.56953304    -0.10200
C902        C  0.31584839  0.09356085  0.59360827    -0.11700
C903        C  0.28570883  0.21449397  0.71458557    -0.10200
C904        C  0.30571205  0.19450240  0.69457887    -0.11700
C905        C  0.70692412  0.09353667  0.38417962    -0.10200
C906        C  0.71292037  0.06944556  0.40825887    -0.11700
C907        C  0.61615574  0.18434595  0.38416126    -0.10200
C908        C  0.59206779  0.19035981  0.40823887    -0.11700
C909        C  0.61615494  0.09354677  0.29339254    -0.10200
C910        C  0.59207105  0.06946460  0.28738174    -0.11700
C911        C  0.71712443  0.19448830  0.28321193    -0.10200
C912        C  0.73711763  0.21448601  0.26319982    -0.11700
C913        C  0.71288660  0.06942127  0.56955292    -0.10200
C914        C  0.70688051  0.09350783  0.59363280    -0.11700
C915        C  0.59201419  0.06941002  0.69039194    -0.10200
C916        C  0.61609419  0.09349977  0.68439415    -0.11700
C917        C  0.61611447  0.18431458  0.59362967    -0.10200
C918        C  0.59203778  0.19033442  0.56954263    -0.11700
C919        C  0.71705845  0.19445212  0.69459875    -0.10200
C920        C  0.73706493  0.21445521  0.71459128    -0.11700
C921        C  0.40663695  0.68428858  0.88414987    -0.10200
C922        C  0.43072070  0.69029644  0.90823340    -0.11700
C923        C  0.40663077  0.59350225  0.79336943    -0.10200
C924        C  0.43071171  0.56941528  0.78736436    -0.11700
C925        C  0.30982920  0.56944471  0.90823057    -0.10200
C926        C  0.31583660  0.59352406  0.88414329    -0.11700
C927        C  0.30569034  0.69447870  0.78318167    -0.10200
C928        C  0.28568594  0.71447997  0.76318427    -0.11700
C929        C  0.70687872  0.59349389  0.88412637    -0.10200
C930        C  0.71288631  0.56941483  0.90821401    -0.11700
C931        C  0.61610212  0.68427619  0.88412003    -0.10200
C932        C  0.59202340  0.69028761  0.90820711    -0.11700
C933        C  0.61610303  0.59349179  0.79333419    -0.10200
C934        C  0.59201883  0.56940769  0.78733190    -0.11700
C935        C  0.71706505  0.69444917  0.78316948    -0.10200
C936        C  0.73706993  0.71445293  0.76317528    -0.11700
C937        C  0.71289543  0.40811809  0.90823545    -0.10200
C938        C  0.70689213  0.38403795  0.88414733    -0.11700
C939        C  0.59201912  0.40810750  0.78735026    -0.10200
C940        C  0.61610921  0.38402932  0.79335462    -0.11700
C941        C  0.59204745  0.28723922  0.90821893    -0.10200
C942        C  0.61612879  0.29324247  0.88413233    -0.11700
C943        C  0.73708909  0.26308776  0.76317672    -0.10200
C944        C  0.71709105  0.28309329  0.78317631    -0.11700
C945        C  0.40661435  0.38403715  0.79339699    -0.10200
C946        C  0.43070119  0.40811515  0.78738276    -0.11700
C947        C  0.30982907  0.40813633  0.90826220    -0.10200
C948        C  0.31583233  0.38404655  0.88418400    -0.11700
C949        C  0.40663486  0.29326968  0.88418117    -0.10200
C950        C  0.43073022  0.28726773  0.90825452    -0.11700
C951        C  0.28567737  0.26308013  0.76321805    -0.10200
C952        C  0.30566597  0.28307730  0.78323448    -0.11700
C953        C  0.43076097  0.40817228  0.19041975    -0.10200
C954        C  0.40667692  0.38408853  0.18441690    -0.11700
C955        C  0.40668316  0.29331439  0.09362980    -0.10200
C956        C  0.43076564  0.28730518  0.06954638    -0.11700
C957        C  0.30986977  0.40816688  0.06955992    -0.10200
C958        C  0.31588424  0.38408446  0.09364184    -0.11700
C959        C  0.28572633  0.26311590  0.21457743    -0.10200
C960        C  0.30573138  0.28311929  0.19458489    -0.11700
C961        C  0.59205784  0.69034152  0.06951213    -0.10200
C962        C  0.61614759  0.68433928  0.09359145    -0.11700
C963        C  0.71292787  0.56945134  0.06951635    -0.10200
C964        C  0.70692890  0.59354396  0.09359315    -0.11700
C965        C  0.61615355  0.59355655  0.18437379    -0.10200
C966        C  0.59207145  0.56947224  0.19038325    -0.11700
C967        C  0.71711255  0.69450985  0.19454841    -0.10200
C968        C  0.73710499  0.71450498  0.21456455    -0.11700
C969        C  0.70693352  0.38405735  0.09363411    -0.10200
C970        C  0.71293672  0.40813898  0.06954798    -0.11700
C971        C  0.59206338  0.40815956  0.19040620    -0.10200
C972        C  0.61614233  0.38406981  0.18440404    -0.11700
C973        C  0.59206809  0.28727681  0.06953056    -0.10200
C974        C  0.61614800  0.29328224  0.09361840    -0.11700
C975        C  0.73709289  0.26309545  0.21458785    -0.10200
C976        C  0.71708917  0.28309913  0.19459227    -0.11700
C977        C  0.43074297  0.69035041  0.06953800    -0.10200
C978        C  0.40665964  0.68434673  0.09362266    -0.11700
C979        C  0.40667531  0.59355540  0.18439380    -0.10200
C980        C  0.43076248  0.56947396  0.19039703    -0.11700
C981        C  0.30986988  0.56947177  0.06953823    -0.10200
C982        C  0.31588005  0.59355589  0.09362034    -0.11700
C983        C  0.28570367  0.71450393  0.21458638    -0.10200
C984        C  0.30570629  0.69450301  0.19458710    -0.11700
loop_ 
_geom_bond_atom_site_label_1 
_geom_bond_atom_site_label_2 
_geom_bond_distance 
_geom_bond_site_symmetry_2 
_ccdc_geom_bond_type 
C1            C2   1.539       .  S
C1            C7   1.539       .  S
C1            C5   1.539       .  S
C1          C984   1.468       .  S
C2            H9   1.086       .  S
C2            C3   1.364       .  D
C3            C4   1.531       .  S
C3          C979   1.440       .  S
C4            C8   1.531       .  S
C4            C6   1.531       .  S
C4           H10   1.113       .  S
C5           H11   1.086       .  S
C5            C6   1.364       .  D
C6          C978   1.440       .  S
C7           H12   1.086       .  S
C7            C8   1.364       .  D
C8          C982   1.440       .  S
C13          C14   1.539       .  S
C13          C19   1.539       .  S
C13          C17   1.539       .  S
C13         C976   1.468       .  S
C14          H21   1.086       .  S
C14          C15   1.364       .  D
C15          C16   1.531       .  S
C15         C969   1.440       .  S
C16          C20   1.531       .  S
C16          C18   1.531       .  S
C16          H22   1.113       .  S
C17          H23   1.086       .  S
C17          C18   1.364       .  D
C18         C972   1.440       .  S
C19          H24   1.086       .  S
C19          C20   1.364       .  D
C20         C974   1.440       .  S
C25          C26   1.539       .  S
C25          C31   1.539       .  S
C25          C29   1.539       .  S
C25         C967   1.468       .  S
C26          H33   1.086       .  S
C26          C27   1.364       .  D
C27          C28   1.531       .  S
C27         C962   1.440       .  S
C28          C32   1.531       .  S
C28          C30   1.531       .  S
C28          H34   1.113       .  S
C29          H35   1.086       .  S
C29          C30   1.364       .  D
C30         C965   1.440       .  S
C31          H36   1.086       .  S
C31          C32   1.364       .  D
C32         C964   1.440       .  S
C37          C38   1.539       .  S
C37          C43   1.539       .  S
C37          C41   1.539       .  S
C37         C960   1.468       .  S
C38          H45   1.086       .  S
C38          C39   1.364       .  D
C39          C40   1.531       .  S
C39         C955   1.440       .  S
C40          C44   1.531       .  S
C40          C42   1.531       .  S
C40          H46   1.113       .  S
C41          H47   1.086       .  S
C41          C42   1.364       .  D
C42         C954   1.440       .  S
C43          H48   1.086       .  S
C43          C44   1.364       .  D
C44         C958   1.440       .  S
O49          V57   1.905       .  S
O49          C59   1.264       .  A
O50          V57   1.905       .  S
O50          C60   1.264       .  A
O51          V57   1.905       .  S
O51          C61   1.263       .  A
O52          V57   1.905       .  S
O52          C62   1.263       .  A
O53          V58   1.895       .  S
O53          C62   1.262       .  A
O54          V58   1.895       .  S
O54          C61   1.262       .  A
O55          V58   1.895       .  S
O55          C60   1.262       .  A
O56          V58   1.895       .  S
O56          C59   1.262       .  A
V57          V58   2.091       .  T
C59         C971   1.434       .  S
C60         C980   1.434       .  S
C61         C953   1.434       .  S
C62         C966   1.434       .  S
C63          C64   1.539       .  S
C63          C69   1.539       .  S
C63          C67   1.539       .  S
C63         C952   1.468       .  S
C64          H71   1.086       .  S
C64          C65   1.364       .  D
C65          C66   1.531       .  S
C65         C948   1.440       .  S
C66          C70   1.531       .  S
C66          C68   1.531       .  S
C66          H72   1.113       .  S
C67          H73   1.086       .  S
C67          C68   1.364       .  D
C68         C945   1.440       .  S
C69          H74   1.086       .  S
C69          C70   1.364       .  D
C70         C949   1.440       .  S
C75          C76   1.539       .  S
C75          C81   1.539       .  S
C75          C79   1.539       .  S
C75         C944   1.468       .  S
C76          H83   1.086       .  S
C76          C77   1.364       .  D
C77          C78   1.531       .  S
C77         C940   1.440       .  S
C78          C82   1.531       .  S
C78          C80   1.531       .  S
C78          H84   1.113       .  S
C79          H85   1.086       .  S
C79          C80   1.364       .  D
C80         C938   1.440       .  S
C81          H86   1.086       .  S
C81          C82   1.364       .  D
C82         C942   1.440       .  S
C87          C88   1.539       .  S
C87          C93   1.539       .  S
C87          C91   1.539       .  S
C87         C935   1.468       .  S
C88          H95   1.086       .  S
C88          C89   1.364       .  D
C89          C90   1.531       .  S
C89         C933   1.440       .  S
C90          C94   1.531       .  S
C90          C92   1.531       .  S
C90          H96   1.113       .  S
C91          H97   1.086       .  S
C91          C92   1.364       .  D
C92         C931   1.440       .  S
C93          H98   1.086       .  S
C93          C94   1.364       .  D
C94         C929   1.440       .  S
C99         C100   1.539       .  S
C99         C105   1.539       .  S
C99         C103   1.539       .  S
C99         C927   1.468       .  S
C100        H107   1.086       .  S
C100        C101   1.364       .  D
C101        C102   1.531       .  S
C101        C926   1.440       .  S
C102        C106   1.531       .  S
C102        C104   1.531       .  S
C102        H108   1.113       .  S
C103        H109   1.086       .  S
C103        C104   1.364       .  D
C104        C921   1.440       .  S
C105        H110   1.086       .  S
C105        C106   1.364       .  D
C106        C923   1.440       .  S
O111        V119   1.895       .  S
O111        C121   1.262       .  A
O112        V119   1.895   1_554  S
O112        C122   1.262       .  A
O113        V119   1.895       .  S
O113        C123   1.262       .  A
O114        V119   1.895   1_554  S
O114        C124   1.262       .  A
O115        V120   1.905   1_554  S
O115        C124   1.264       .  A
O116        V120   1.905       .  S
O116        C123   1.264       .  A
O117        V120   1.905   1_554  S
O117        C122   1.263       .  A
O118        V120   1.905       .  S
O118        C121   1.263       .  A
V119        V120   2.091       .  T
C121        C925   1.434       .  S
C122        C957   1.434       .  S
C123        C947   1.434       .  S
C124        C981   1.434       .  S
O125        V133   1.895       .  S
O125        C135   1.262       .  A
O126        V133   1.895   1_554  S
O126        C136   1.262       .  A
O127        V133   1.895       .  S
O127        C137   1.262       .  A
O128        V133   1.895   1_554  S
O128        C138   1.262       .  A
O129        V134   1.905   1_554  S
O129        C138   1.264       .  A
O130        V134   1.905       .  S
O130        C137   1.264       .  A
O131        V134   1.905   1_554  S
O131        C136   1.263       .  A
O132        V134   1.905       .  S
O132        C135   1.263       .  A
V133        V134   2.091       .  T
C135        C932   1.434       .  S
C136        C977   1.434       .  S
C137        C922   1.434       .  S
C138        C961   1.434       .  S
O139        V147   1.895       .  S
O139        C149   1.262       .  A
O140        V147   1.895   1_554  S
O140        C150   1.262       .  A
O141        V147   1.895   1_554  S
O141        C151   1.262       .  A
O142        V147   1.895       .  S
O142        C152   1.262       .  A
O143        V148   1.905       .  S
O143        C152   1.264       .  A
O144        V148   1.905   1_554  S
O144        C151   1.264       .  A
O145        V148   1.905   1_554  S
O145        C150   1.263       .  A
O146        V148   1.905       .  S
O146        C149   1.263       .  A
V147        V148   2.091       .  T
C149        C930   1.434       .  S
C150        C970   1.434       .  S
C151        C963   1.434       .  S
C152        C937   1.434       .  S
O153        V161   1.895   1_554  S
O153        C163   1.262       .  A
O154        V161   1.895       .  S
O154        C164   1.262       .  A
O155        V161   1.895   1_554  S
O155        C165   1.262       .  A
O156        V161   1.895       .  S
O156        C166   1.262       .  A
O157        V162   1.905       .  S
O157        C166   1.263       .  A
O158        V162   1.905   1_554  S
O158        C165   1.263       .  A
O159        V162   1.905       .  S
O159        C164   1.263       .  A
O160        V162   1.905   1_554  S
O160        C163   1.263       .  A
V161        V162   2.091       .  T
C163        C973   1.434       .  S
C164        C950   1.434       .  S
C165        C956   1.434       .  S
C166        C941   1.434       .  S
O167        V175   1.905       .  S
O167        C177   1.263       .  A
O168        V175   1.905       .  S
O168        C178   1.263       .  A
O169        V175   1.905       .  S
O169        C179   1.264       .  A
O170        V175   1.905       .  S
O170        C180   1.264       .  A
O171        V176   1.895       .  S
O171        C180   1.262       .  A
O172        V176   1.895       .  S
O172        C179   1.262       .  A
O173        V176   1.895       .  S
O173        C178   1.262       .  A
O174        V176   1.895       .  S
O174        C177   1.262       .  A
V175        V176   2.091       .  T
C177        C934   1.434       .  S
C178        C946   1.434       .  S
C179        C924   1.434       .  S
C180        C939   1.434       .  S
C181        C182   1.539       .  S
C181        C187   1.539       .  S
C181        C185   1.539       .  S
C181        C919   1.468       .  S
C182        H189   1.086       .  S
C182        C183   1.364       .  D
C183        C184   1.531       .  S
C183        C914   1.440       .  S
C184        C188   1.531       .  S
C184        C186   1.531       .  S
C184        H190   1.113       .  S
C185        H191   1.086       .  S
C185        C186   1.364       .  D
C186        C917   1.440       .  S
C187        H192   1.086       .  S
C187        C188   1.364       .  D
C188        C916   1.440       .  S
C193        C194   1.539       .  S
C193        C199   1.539       .  S
C193        C197   1.539       .  S
C193        C911   1.468       .  S
C194        H201   1.086       .  S
C194        C195   1.364       .  D
C195        C196   1.531       .  S
C195        C909   1.440       .  S
C196        C200   1.531       .  S
C196        C198   1.531       .  S
C196        H202   1.113       .  S
C197        H203   1.086       .  S
C197        C198   1.364       .  D
C198        C907   1.440       .  S
C199        H204   1.086       .  S
C199        C200   1.364       .  D
C200        C905   1.440       .  S
C205        C206   1.539       .  S
C205        C211   1.539       .  S
C205        C209   1.539       .  S
C205        C904   1.468       .  S
C206        H213   1.086       .  S
C206        C207   1.364       .  D
C207        C208   1.531       .  S
C207        C897   1.440       .  S
C208        C212   1.531       .  S
C208        C210   1.531       .  S
C208        H214   1.113       .  S
C209        H215   1.086       .  S
C209        C210   1.364       .  D
C210        C899   1.440       .  S
C211        H216   1.086       .  S
C211        C212   1.364       .  D
C212        C902   1.440       .  S
C217        C218   1.539       .  S
C217        C223   1.539       .  S
C217        C221   1.539       .  S
C217        C895   1.468       .  S
C218        H225   1.086       .  S
C218        C219   1.364       .  D
C219        C220   1.531       .  S
C219        C889   1.440       .  S
C220        C224   1.531       .  S
C220        C222   1.531       .  S
C220        H226   1.113       .  S
C221        H227   1.086       .  S
C221        C222   1.364       .  D
C222        C893   1.440       .  S
C223        H228   1.086       .  S
C223        C224   1.364       .  D
C224        C891   1.440       .  S
O229        V237   1.905       .  S
O229        C239   1.264       .  A
O230        V237   1.905       .  S
O230        C240   1.264       .  A
O231        V237   1.905       .  S
O231        C241   1.264       .  A
O232        V237   1.905       .  S
O232        C242   1.263       .  A
O233        V238   1.895       .  S
O233        C242   1.262       .  A
O234        V238   1.895       .  S
O234        C241   1.262       .  A
O235        V238   1.895       .  S
O235        C240   1.262       .  A
O236        V238   1.895       .  S
O236        C239   1.262       .  A
V237        V238   2.091       .  T
C239        C908   1.434       .  S
C240        C900   1.434       .  S
C241        C918   1.434       .  S
C242        C890   1.434       .  S
C243        C244   1.539       .  S
C243        C249   1.539       .  S
C243        C247   1.539       .  S
C243        C887   1.468       .  S
C244        H251   1.086       .  S
C244        C245   1.364       .  D
C245        C246   1.531       .  S
C245        C885   1.440       .  S
C246        C250   1.531       .  S
C246        C248   1.531       .  S
C246        H252   1.113       .  S
C247        H253   1.086       .  S
C247        C248   1.364       .  D
C248        C882   1.440       .  S
C249        H254   1.086       .  S
C249        C250   1.364       .  D
C250        C883   1.440       .  S
C255        C256   1.539       .  S
C255        C261   1.539       .  S
C255        C259   1.539       .  S
C255        C880   1.468       .  S
C256        H263   1.086       .  S
C256        C257   1.364       .  D
C257        C258   1.531       .  S
C257        C875   1.440       .  S
C258        C262   1.531       .  S
C258        C260   1.531       .  S
C258        H264   1.113       .  S
C259        H265   1.086       .  S
C259        C260   1.364       .  D
C260        C874   1.440       .  S
C261        H266   1.086       .  S
C261        C262   1.364       .  D
C262        C878   1.440       .  S
C267        C268   1.539       .  S
C267        C273   1.539       .  S
C267        C271   1.539       .  S
C267        C872   1.468       .  S
C268        H275   1.086       .  S
C268        C269   1.364       .  D
C269        C270   1.531       .  S
C269        C867   1.440       .  S
C270        C274   1.531       .  S
C270        C272   1.531       .  S
C270        H276   1.113       .  S
C271        H277   1.086       .  S
C271        C272   1.364       .  D
C272        C865   1.440       .  S
C273        H278   1.086       .  S
C273        C274   1.364       .  D
C274        C869   1.440       .  S
C279        C280   1.539       .  S
C279        C285   1.539       .  S
C279        C283   1.539       .  S
C279        C864   1.468       .  S
C280        H287   1.086       .  S
C280        C281   1.364       .  D
C281        C282   1.531       .  S
C281        C862   1.440       .  S
C282        C286   1.531       .  S
C282        C284   1.531       .  S
C282        H288   1.113       .  S
C283        H289   1.086       .  S
C283        C284   1.364       .  D
C284        C859   1.440       .  S
C285        H290   1.086       .  S
C285        C286   1.364       .  D
C286        C857   1.440       .  S
O291        V299   1.895   1_545  S
O291        C301   1.262       .  A
O292        V299   1.895       .  S
O292        C302   1.262       .  A
O293        V299   1.895   1_545  S
O293        C303   1.262       .  A
O294        V299   1.895       .  S
O294        C304   1.262       .  A
O295        V300   1.905       .  S
O295        C304   1.263       .  A
O296        V300   1.905   1_545  S
O296        C303   1.263       .  A
O297        V300   1.905       .  S
O297        C302   1.264       .  A
O298        V300   1.905   1_545  S
O298        C301   1.264       .  A
V299        V300   2.091       .  T
C301        C906   1.434       .  S
C302        C860   1.434       .  S
C303        C913   1.434       .  S
C304        C881   1.434       .  S
O305        V313   1.905       .  S
O305        C315   1.263       .  A
O306        V313   1.905   1_545  S
O306        C316   1.263       .  A
O307        V313   1.905   1_545  S
O307        C317   1.263       .  A
O308        V313   1.905       .  S
O308        C318   1.264       .  A
O309        V314   1.895       .  S
O309        C318   1.262       .  A
O310        V314   1.895   1_545  S
O310        C317   1.262       .  A
O311        V314   1.895   1_545  S
O311        C316   1.262       .  A
O312        V314   1.895       .  S
O312        C315   1.262       .  A
V313        V314   2.091       .  T
C315        C866   1.434       .  S
C316        C915   1.434       .  S
C317        C898   1.434       .  S
C318        C858   1.434       .  S
O319        V327   1.895   1_545  S
O319        C329   1.262       .  A
O320        V327   1.895       .  S
O320        C330   1.262       .  A
O321        V327   1.895       .  S
O321        C331   1.262       .  A
O322        V327   1.895   1_545  S
O322        C332   1.262       .  A
O323        V328   1.905   1_545  S
O323        C332   1.263       .  A
O324        V328   1.905       .  S
O324        C331   1.263       .  A
O325        V328   1.905       .  S
O325        C330   1.264       .  A
O326        V328   1.905   1_545  S
O326        C329   1.264       .  A
V327        V328   2.091       .  T
C329        C892   1.434       .  S
C330        C870   1.434       .  S
C331        C877   1.434       .  S
C332        C901   1.434       .  S
O333        V341   1.895   1_545  S
O333        C343   1.262       .  A
O334        V341   1.895       .  S
O334        C344   1.262       .  A
O335        V341   1.895   1_545  S
O335        C345   1.262       .  A
O336        V341   1.895       .  S
O336        C346   1.262       .  A
O337        V342   1.905       .  S
O337        C346   1.263       .  A
O338        V342   1.905   1_545  S
O338        C345   1.263       .  A
O339        V342   1.905       .  S
O339        C344   1.264       .  A
O340        V342   1.905   1_545  S
O340        C343   1.263       .  A
V341        V342   2.091       .  T
C343        C894   1.434       .  S
C344        C886   1.434       .  S
C345        C910   1.434       .  S
C346        C876   1.434       .  S
O347        V355   1.905       .  S
O347        C357   1.263       .  A
O348        V355   1.905       .  S
O348        C358   1.263       .  A
O349        V355   1.905       .  S
O349        C359   1.263       .  A
O350        V355   1.905       .  S
O350        C360   1.263       .  A
O351        V356   1.895       .  S
O351        C360   1.262       .  A
O352        V356   1.895       .  S
O352        C359   1.262       .  A
O353        V356   1.895       .  S
O353        C358   1.262       .  A
O354        V356   1.895       .  S
O354        C357   1.262       .  A
V355        V356   2.091       .  T
C357        C861   1.434       .  S
C358        C873   1.434       .  S
C359        C884   1.434       .  S
C360        C868   1.434       .  S
C361        C362   1.539       .  S
C361        C367   1.539       .  S
C361        C365   1.539       .  S
C361        C856   1.468       .  S
C362        H369   1.086       .  S
C362        C363   1.364       .  D
C363        C364   1.531       .  S
C363        C854   1.440       .  S
C364        C368   1.531       .  S
C364        C366   1.531       .  S
C364        H370   1.113       .  S
C365        H371   1.086       .  S
C365        C366   1.364       .  D
C366        C849   1.440       .  S
C367        H372   1.086       .  S
C367        C368   1.364       .  D
C368        C851   1.440       .  S
C373        C374   1.539       .  S
C373        C379   1.539       .  S
C373        C377   1.539       .  S
C373        C847   1.468       .  S
C374        H381   1.086       .  S
C374        C375   1.364       .  D
C375        C376   1.531       .  S
C375        C845   1.440       .  S
C376        C380   1.531       .  S
C376        C378   1.531       .  S
C376        H382   1.113       .  S
C377        H383   1.086       .  S
C377        C378   1.364       .  D
C378        C843   1.440       .  S
C379        H384   1.086       .  S
C379        C380   1.364       .  D
C380        C841   1.440       .  S
C385        C386   1.539       .  S
C385        C391   1.539       .  S
C385        C389   1.539       .  S
C385        C839   1.468       .  S
C386        H393   1.086       .  S
C386        C387   1.364       .  D
C387        C388   1.531       .  S
C387        C833   1.440       .  S
C388        C392   1.531       .  S
C388        C390   1.531       .  S
C388        H394   1.113       .  S
C389        H395   1.086       .  S
C389        C390   1.364       .  D
C390        C837   1.440       .  S
C391        H396   1.086       .  S
C391        C392   1.364       .  D
C392        C835   1.440       .  S
C397        C398   1.539       .  S
C397        C403   1.539       .  S
C397        C401   1.539       .  S
C397        C831   1.468       .  S
C398        H405   1.086       .  S
C398        C399   1.364       .  D
C399        C400   1.531       .  S
C399        C827   1.440       .  S
C400        C404   1.531       .  S
C400        C402   1.531       .  S
C400        H406   1.113       .  S
C401        H407   1.086       .  S
C401        C402   1.364       .  D
C402        C825   1.440       .  S
C403        H408   1.086       .  S
C403        C404   1.364       .  D
C404        C829   1.440       .  S
O409        V417   1.895       .  S
O409        C419   1.262       .  A
O410        V417   1.895   1_655  S
O410        C420   1.262       .  A
O411        V417   1.895   1_655  S
O411        C421   1.262       .  A
O412        V417   1.895       .  S
O412        C422   1.262       .  A
O413        V418   1.905       .  S
O413        C422   1.263       .  A
O414        V418   1.905   1_655  S
O414        C421   1.263       .  A
O415        V418   1.905   1_655  S
O415        C420   1.263       .  A
O416        V418   1.905       .  S
O416        C419   1.263       .  A
V417        V418   2.091       .  T
C419        C824   1.434       .  S
C420        C826   1.434       .  S
C421        C834   1.434       .  S
C422        C821   1.434       .  S
O423        V431   1.895   1_655  S
O423        C433   1.262       .  A
O424        V431   1.895       .  S
O424        C434   1.262       .  A
O425        V431   1.895       .  S
O425        C435   1.262       .  A
O426        V431   1.895   1_655  S
O426        C436   1.262       .  A
O427        V432   1.905   1_655  S
O427        C436   1.263       .  A
O428        V432   1.905       .  S
O428        C435   1.263       .  A
O429        V432   1.905       .  S
O429        C434   1.263       .  A
O430        V432   1.905   1_655  S
O430        C433   1.263       .  A
V431        V432   2.091       .  T
C433        C850   1.434       .  S
C434        C818   1.434       .  S
C435        C820   1.434       .  S
C436        C828   1.434       .  S
O437        V445   1.895   1_655  S
O437        C447   1.262       .  A
O438        V445   1.895       .  S
O438        C448   1.262       .  A
O439        V445   1.895   1_655  S
O439        C449   1.262       .  A
O440        V445   1.895       .  S
O440        C450   1.262       .  A
O441        V446   1.905       .  S
O441        C450   1.263       .  A
O442        V446   1.905   1_655  S
O442        C449   1.263       .  A
O443        V446   1.905       .  S
O443        C448   1.263       .  A
O444        V446   1.905   1_655  S
O444        C447   1.263       .  A
V445        V446   2.091       .  T
C447        C846   1.434       .  S
C448        C816   1.434       .  S
C449        C838   1.434       .  S
C450        C814   1.434       .  S
O451        V459   1.895   1_655  S
O451        C461   1.262       .  A
O452        V459   1.895       .  S
O452        C462   1.262       .  A
O453        V459   1.895       .  S
O453        C463   1.262       .  A
O454        V459   1.895   1_655  S
O454        C464   1.262       .  A
O455        V460   1.905   1_655  S
O455        C464   1.264       .  A
O456        V460   1.905       .  S
O456        C463   1.263       .  A
O457        V460   1.905       .  S
O457        C462   1.263       .  A
O458        V460   1.905   1_655  S
O458        C461   1.263       .  A
V459        V460   2.091       .  T
C461        C844   1.434       .  S
C462        C811   1.434       .  S
C463        C810   1.434       .  S
C464        C853   1.434       .  S
O465        V473   1.895       .  S
O465        C475   1.262       .  A
O466        V473   1.895       .  S
O466        C476   1.262       .  A
O467        V473   1.895       .  S
O467        C477   1.262       .  A
O468        V473   1.895       .  S
O468        C478   1.262       .  A
O469        V474   1.905       .  S
O469        C478   1.263       .  A
O470        V474   1.905       .  S
O470        C477   1.263       .  A
O471        V474   1.905       .  S
O471        C476   1.263       .  A
O472        V474   1.905       .  S
O472        C475   1.263       .  A
V473        V474   2.091       .  T
C475        C852   1.434       .  S
C476        C836   1.434       .  S
C477        C830   1.434       .  S
C478        C842   1.434       .  S
C479        C480   1.539       .  S
C479        C485   1.539       .  S
C479        C483   1.539       .  S
C479        C808   1.468       .  S
C480        H487   1.086       .  S
C480        C481   1.364       .  D
C481        C482   1.531       .  S
C481        C806   1.440       .  S
C482        C486   1.531       .  S
C482        C484   1.531       .  S
C482        H488   1.113       .  S
C483        H489   1.086       .  S
C483        C484   1.364       .  D
C484        C819   1.440       .  S
C485        H490   1.086       .  S
C485        C486   1.364       .  D
C486        C812   1.440       .  S
C491        C492   1.539       .  S
C491        C497   1.539       .  S
C491        C495   1.539       .  S
C491        C803   1.468       .  S
C492        H499   1.086       .  S
C492        C493   1.364       .  D
C493        C494   1.531       .  S
C493        C815   1.440       .  S
C494        C498   1.531       .  S
C494        C496   1.531       .  S
C494        H500   1.113       .  S
C495        H501   1.086       .  S
C495        C496   1.364       .  D
C496        C823   1.440       .  S
C497        H502   1.086       .  S
C497        C498   1.364       .  D
C498        C801   1.440       .  S
C503        C504   1.539       .  S
C503        C509   1.539       .  S
C503        C507   1.539       .  S
C503        C800   1.468       .  S
C504        H511   1.086       .  S
C504        C505   1.364       .  D
C505        C506   1.531       .  S
C505        C798   1.440       .  S
C506        C510   1.531       .  S
C506        C508   1.531       .  S
C506        H512   1.113       .  S
C507        H513   1.086       .  S
C507        C508   1.364       .  D
C508        C822   1.440       .  S
C509        H514   1.086       .  S
C509        C510   1.364       .  D
C510        C817   1.440       .  S
C515        C516   1.539       .  S
C515        C521   1.539       .  S
C515        C519   1.539       .  S
C515        C796   1.468       .  S
C516        H523   1.086       .  S
C516        C517   1.364       .  D
C517        C518   1.531       .  S
C517        C809   1.440       .  S
C518        C522   1.531       .  S
C518        C520   1.531       .  S
C518        H524   1.113       .  S
C519        H525   1.086       .  S
C519        C520   1.364       .  D
C520        C813   1.440       .  S
C521        H526   1.086       .  S
C521        C522   1.364       .  D
C522        C793   1.440       .  S
O527        V535   1.895       .  S
O527        C537   1.262       .  A
O528        V535   1.895       .  S
O528        C538   1.262       .  A
O529        V535   1.895       .  S
O529        C539   1.262       .  A
O530        V535   1.895       .  S
O530        C540   1.262       .  A
O531        V536   1.905       .  S
O531        C540   1.264       .  A
O532        V536   1.905       .  S
O532        C539   1.264       .  A
O533        V536   1.905       .  S
O533        C538   1.264       .  A
O534        V536   1.905       .  S
O534        C537   1.264       .  A
V535        V536   2.091       .  T
C537        C797   1.434       .  S
C538        C794   1.434       .  S
C539        C805   1.434       .  S
C540        C802   1.434       .  S
C541        C791   1.467       .  S
C541        C795   1.467       .  S
C541        C896   1.467       .  S
C541        C959   1.467       .  S
C542        C789   1.467       .  S
C542        C848   1.467       .  S
C542        C912   1.467       .  S
C542        C975   1.467       .  S
C543        C788   1.467       .  S
C543        C804   1.467       .  S
C543        C879   1.467       .  S
C543        C983   1.467       .  S
C544        C785   1.467       .  S
C544        C807   1.467       .  S
C544        C903   1.467       .  S
C544        C951   1.467       .  S
C545        C783   1.467       .  S
C545        C855   1.467       .  S
C545        C920   1.467       .  S
C545        C943   1.467       .  S
C546        C782   1.467       .  S
C546        C840   1.467       .  S
C546        C888   1.467       .  S
C546        C968   1.467       .  S
C547        C779   1.467       .  S
C547        C799   1.467       .  S
C547        C871   1.467       .  S
C547        C928   1.467       .  S
C548        C549   1.539       .  S
C548        C554   1.539       .  S
C548        C552   1.539       .  S
C548        C792   1.468       .  S
C549        H556   1.086       .  S
C549        C550   1.364       .  D
C550        C551   1.531       .  S
C550        C778   1.440       .  S
C551        C555   1.531       .  S
C551        C553   1.531       .  S
C551        H557   1.113       .  S
C552        H558   1.086       .  S
C552        C553   1.364       .  D
C553        C775   1.440       .  S
C554        H559   1.086       .  S
C554        C555   1.364       .  D
C555        C774   1.440       .  S
C560        C561   1.539       .  S
C560        C566   1.539       .  S
C560        C564   1.539       .  S
C560        C786   1.468       .  S
C561        H568   1.086       .  S
C561        C562   1.364       .  D
C562        C563   1.531       .  S
C562        C772   1.440       .  S
C563        C567   1.531       .  S
C563        C565   1.531       .  S
C563        H569   1.113       .  S
C564        H570   1.086       .  S
C564        C565   1.364       .  D
C565        C769   1.440       .  S
C566        H571   1.086       .  S
C566        C567   1.364       .  D
C567        C767   1.440       .  S
C572        C573   1.539       .  S
C572        C578   1.539       .  S
C572        C576   1.539       .  S
C572        C790   1.468       .  S
C573        H580   1.086       .  S
C573        C574   1.364       .  D
C574        C575   1.531       .  S
C574        C766   1.440       .  S
C575        C579   1.531       .  S
C575        C577   1.531       .  S
C575        H581   1.113       .  S
C576        H582   1.086       .  S
C576        C577   1.364       .  D
C577        C763   1.440       .  S
C578        H583   1.086       .  S
C578        C579   1.364       .  D
C579        C761   1.440       .  S
C584        C585   1.539       .  S
C584        C590   1.539       .  S
C584        C588   1.539       .  S
C584        C787   1.468       .  S
C585        H592   1.086       .  S
C585        C586   1.364       .  D
C586        C587   1.531       .  S
C586        C758   1.440       .  S
C587        C591   1.531       .  S
C587        C589   1.531       .  S
C587        H593   1.113       .  S
C588        H594   1.086       .  S
C588        C589   1.364       .  D
C589        C759   1.440       .  S
C590        H595   1.086       .  S
C590        C591   1.364       .  D
C591        C755   1.440       .  S
C596        C597   1.539       .  S
C596        C602   1.539       .  S
C596        C600   1.539       .  S
C596        C781   1.468       .  S
C597        H604   1.086       .  S
C597        C598   1.364       .  D
C598        C599   1.531       .  S
C598        C749   1.440       .  S
C599        C603   1.531       .  S
C599        C601   1.531       .  S
C599        H605   1.113       .  S
C600        H606   1.086       .  S
C600        C601   1.364       .  D
C601        C751   1.440       .  S
C602        H607   1.086       .  S
C602        C603   1.364       .  D
C603        C754   1.440       .  S
O608        V616   1.905   1_655  S
O608        C618   1.264       .  A
O609        V616   1.905   1_545  S
O609        C619   1.264       .  A
O610        V616   1.905   1_645  S
O610        C620   1.263       .  A
O611        V616   1.905       .  S
O611        C621   1.263       .  A
O612        V617   1.895       .  S
O612        C621   1.262       .  A
O613        V617   1.895   1_645  S
O613        C620   1.262       .  A
O614        V617   1.895   1_545  S
O614        C619   1.262       .  A
O615        V617   1.895   1_655  S
O615        C618   1.262       .  A
V616        V617   2.091       .  T
C618        C750   1.434       .  S
C619        C776   1.434       .  S
C620        C764   1.434       .  S
C621        C757   1.434       .  S
C622        C623   1.539       .  S
C622        C628   1.539       .  S
C622        C626   1.539       .  S
C622        C780   1.468       .  S
C623        H630   1.086       .  S
C623        C624   1.364       .  D
C624        C625   1.531       .  S
C624        C748   1.440       .  S
C625        C629   1.531       .  S
C625        C627   1.531       .  S
C625        H631   1.113       .  S
C626        H632   1.086       .  S
C626        C627   1.364       .  D
C627        C745   1.440       .  S
C628        H633   1.086       .  S
C628        C629   1.364       .  D
C629        C744   1.440       .  S
O634        V642   1.895   1_554  S
O634        C644   1.262       .  A
O635        V642   1.895   1_545  S
O635        C645   1.262       .  A
O636        V642   1.895       .  S
O636        C646   1.262       .  A
O637        V642   1.895   1_544  S
O637        C647   1.262       .  A
O638        V643   1.905   1_544  S
O638        C647   1.264       .  A
O639        V643   1.905       .  S
O639        C646   1.264       .  A
O640        V643   1.905   1_545  S
O640        C645   1.263       .  A
O641        V643   1.905   1_554  S
O641        C644   1.263       .  A
V642        V643   2.091       .  T
C644        C756   1.434       .  S
C645        C768   1.434       .  S
C646        C743   1.434       .  S
C647        C773   1.434       .  S
C648        C649   1.539       .  S
C648        C654   1.539       .  S
C648        C652   1.539       .  S
C648        C784   1.468       .  S
C649        H656   1.086       .  S
C649        C650   1.364       .  D
C650        C651   1.531       .  S
C650        C740   1.440       .  S
C651        C655   1.531       .  S
C651        C653   1.531       .  S
C651        H657   1.113       .  S
C652        H658   1.086       .  S
C652        C653   1.364       .  D
C653        C737   1.440       .  S
C654        H659   1.086       .  S
C654        C655   1.364       .  D
C655        C742   1.440       .  S
O660        V668   1.905       .  S
O660        C670   1.263       .  A
O661        V668   1.905   1_654  S
O661        C671   1.264       .  A
O662        V668   1.905   1_554  S
O662        C672   1.264       .  A
O663        V668   1.905   1_655  S
O663        C673   1.264       .  A
O664        V669   1.895   1_655  S
O664        C673   1.262       .  A
O665        V669   1.895   1_554  S
O665        C672   1.262       .  A
O666        V669   1.895   1_654  S
O666        C671   1.262       .  A
O667        V669   1.895       .  S
O667        C670   1.262       .  A
V668        V669   2.091       .  T
C670        C770   1.434       .  S
C671        C762   1.434       .  S
C672        C777   1.434       .  S
C673        C738   1.434       .  S
C674        C675   1.539       .  S
C674        C680   1.539       .  S
C674        C678   1.539       .  S
C674        C736   1.468       .  S
C675        H682   1.086       .  S
C675        C676   1.364       .  D
C676        C677   1.531       .  S
C676        C729   1.440       .  S
C677        C681   1.531       .  S
C677        C679   1.531       .  S
C677        H683   1.113       .  S
C678        H684   1.086       .  S
C678        C679   1.364       .  D
C679        C733   1.440       .  S
C680        H685   1.086       .  S
C680        C681   1.364       .  D
C681        C731   1.440       .  S
O686        V694   1.905   1_554  S
O686        C696   1.263       .  A
O687        V694   1.905   1_655  S
O687        C697   1.263       .  A
O688        V694   1.905       .  S
O688        C698   1.263       .  A
O689        V694   1.905   1_654  S
O689        C699   1.263       .  A
O690        V695   1.895   1_654  S
O690        C699   1.262       .  A
O691        V695   1.895       .  S
O691        C698   1.262       .  A
O692        V695   1.895   1_655  S
O692        C697   1.262       .  A
O693        V695   1.895   1_554  S
O693        C696   1.262       .  A
V694        V695   2.091       .  T
C696        C760   1.434       .  S
C697        C732   1.434       .  S
C698        C747   1.434       .  S
C699        C753   1.434       .  S
O700        V708   1.895   1_554  S
O700        C710   1.262       .  A
O701        V708   1.895   1_545  S
O701        C711   1.262       .  A
O702        V708   1.895   1_544  S
O702        C712   1.262       .  A
O703        V708   1.895       .  S
O703        C713   1.262       .  A
O704        V709   1.905       .  S
O704        C713   1.264       .  A
O705        V709   1.905   1_544  S
O705        C712   1.263       .  A
O706        V709   1.905   1_545  S
O706        C711   1.263       .  A
O707        V709   1.905   1_554  S
O707        C710   1.263       .  A
V708        V709   2.091       .  T
C710        C752   1.434       .  S
C711        C739   1.434       .  S
C712        C765   1.434       .  S
C713        C730   1.434       .  S
O714        V722   1.905   1_645  S
O714        C724   1.263       .  A
O715        V722   1.905       .  S
O715        C725   1.263       .  A
O716        V722   1.905   1_655  S
O716        C726   1.263       .  A
O717        V722   1.905   1_545  S
O717        C727   1.263       .  A
O718        V723   1.895   1_545  S
O718        C727   1.262       .  A
O719        V723   1.895   1_655  S
O719        C726   1.262       .  A
O720        V723   1.895       .  S
O720        C725   1.262       .  A
O721        V723   1.895   1_645  S
O721        C724   1.262       .  A
V722        V723   2.091       .  T
C724        C741   1.434       .  S
C725        C746   1.434       .  S
C726        C734   1.434       .  S
C727        C771   1.434       .  S
C728        C735   1.467       .  S
C728        C832   1.467       .  S
C728        C863   1.467       .  S
C728        C936   1.467       .  S
C729        C730   1.205       .  T
C731        C732   1.205       .  T
C733        C734   1.205       .  T
C735        C736   1.207       .  T
C737        C738   1.205       .  T
C739        C740   1.205       .  T
C741        C742   1.205       .  T
C743        C744   1.205       .  T
C745        C746   1.205       .  T
C747        C748   1.205       .  T
C749        C750   1.205       .  T
C751        C752   1.205       .  T
C753        C754   1.205       .  T
C755        C756   1.205       .  T
C757        C758   1.205       .  T
C759        C760   1.205       .  T
C761        C762   1.205       .  T
C763        C764   1.205       .  T
C765        C766   1.205       .  T
C767        C768   1.205       .  T
C769        C770   1.205       .  T
C771        C772   1.205       .  T
C773        C774   1.205       .  T
C775        C776   1.205       .  T
C777        C778   1.205       .  T
C779        C780   1.207       .  T
C781        C782   1.207       .  T
C783        C784   1.207       .  T
C785        C786   1.207       .  T
C787        C788   1.207       .  T
C789        C790   1.207       .  T
C791        C792   1.207       .  T
C793        C794   1.205       .  T
C795        C796   1.207       .  T
C797        C798   1.205       .  T
C799        C800   1.207       .  T
C801        C802   1.205       .  T
C803        C804   1.207       .  T
C805        C806   1.205       .  T
C807        C808   1.207       .  T
C809        C810   1.205       .  T
C811        C812   1.205       .  T
C813        C814   1.205       .  T
C815        C816   1.205       .  T
C817        C818   1.205       .  T
C819        C820   1.205       .  T
C821        C822   1.205       .  T
C823        C824   1.205       .  T
C825        C826   1.205       .  T
C827        C828   1.205       .  T
C829        C830   1.205       .  T
C831        C832   1.207       .  T
C833        C834   1.205       .  T
C835        C836   1.205       .  T
C837        C838   1.205       .  T
C839        C840   1.207       .  T
C841        C842   1.205       .  T
C843        C844   1.205       .  T
C845        C846   1.205       .  T
C847        C848   1.207       .  T
C849        C850   1.205       .  T
C851        C852   1.205       .  T
C853        C854   1.205       .  T
C855        C856   1.207       .  T
C857        C858   1.205       .  T
C859        C860   1.205       .  T
C861        C862   1.205       .  T
C863        C864   1.207       .  T
C865        C866   1.205       .  T
C867        C868   1.205       .  T
C869        C870   1.205       .  T
C871        C872   1.207       .  T
C873        C874   1.205       .  T
C875        C876   1.205       .  T
C877        C878   1.205       .  T
C879        C880   1.207       .  T
C881        C882   1.205       .  T
C883        C884   1.205       .  T
C885        C886   1.205       .  T
C887        C888   1.207       .  T
C889        C890   1.205       .  T
C891        C892   1.205       .  T
C893        C894   1.205       .  T
C895        C896   1.207       .  T
C897        C898   1.205       .  T
C899        C900   1.205       .  T
C901        C902   1.205       .  T
C903        C904   1.207       .  T
C905        C906   1.205       .  T
C907        C908   1.205       .  T
C909        C910   1.205       .  T
C911        C912   1.207       .  T
C913        C914   1.205       .  T
C915        C916   1.205       .  T
C917        C918   1.205       .  T
C919        C920   1.207       .  T
C921        C922   1.205       .  T
C923        C924   1.205       .  T
C925        C926   1.205       .  T
C927        C928   1.207       .  T
C929        C930   1.205       .  T
C931        C932   1.205       .  T
C933        C934   1.205       .  T
C935        C936   1.207       .  T
C937        C938   1.205       .  T
C939        C940   1.205       .  T
C941        C942   1.205       .  T
C943        C944   1.207       .  T
C945        C946   1.205       .  T
C947        C948   1.205       .  T
C949        C950   1.205       .  T
C951        C952   1.207       .  T
C953        C954   1.205       .  T
C955        C956   1.205       .  T
C957        C958   1.205       .  T
C959        C960   1.207       .  T
C961        C962   1.205       .  T
C963        C964   1.205       .  T
C965        C966   1.205       .  T
C967        C968   1.207       .  T
C969        C970   1.205       .  T
C971        C972   1.205       .  T
C973        C974   1.205       .  T
C975        C976   1.207       .  T
C977        C978   1.205       .  T
C979        C980   1.205       .  T
C981        C982   1.205       .  T
C983        C984   1.207       .  T
