geometry optimzed in LAMMPS
_audit_creation_date              2020-11-30 
_audit_creation_method            'lammps2cif' 
_symmetry_space_group_name_H-M    'P1' 
_symmetry_Int_Tables_number       1 
_symmetry_cell_setting            triclinic 
loop_ 
_symmetry_equiv_pos_as_xyz 
  x,y,z 
_cell_length_a                    36.69460278 
_cell_length_b                    37.58849755695794 
_cell_length_c                    37.28863412575054 
_cell_angle_alpha                 89.59731738439673 
_cell_angle_beta                  88.86453753641815 
_cell_angle_gamma                 91.52541522783909 
loop_ 
_atom_site_label 
_atom_site_type_symbol 
_atom_site_fract_x 
_atom_site_fract_y 
_atom_site_fract_z 
_atom_site_charge 
O1          O  0.27357281  0.67203706  0.77851871    -0.78600
O2          O  0.31642319  0.80462543  0.72894786    -0.78600
O3          O  0.25815693  0.71108978  0.66674656    -0.78600
O4          O  0.28545788  0.77714689  0.80478248    -0.78500
O5          O  0.30767225  0.74364257  0.67721080    -0.78700
O6          O  0.26900638  0.72700196  0.82756124    -0.78600
O7          O  0.27525395  0.82754681  0.76653473    -0.78600
O8          O  0.27759850  0.68040453  0.72145311    -0.78600
C9          C  0.28652526  0.66312654  0.74841828     1.11100
C10         C  0.30591959  0.82973234  0.74982300     1.11000
C11         C  0.29047794  0.72052373  0.65839804     1.11100
C12         C  0.28550856  0.75630046  0.83086103     1.11000
O13         O  0.20229137  0.75099156  0.79678500    -0.78600
O14         O  0.23634468  0.77056292  0.66508495    -0.78600
O15         O  0.20842085  0.66634824  0.70248685    -0.78600
O16         O  0.20369212  0.80523700  0.74391580    -0.78600
O17         O  0.24766675  0.82438359  0.70767669    -0.78600
O18         O  0.20013940  0.69046891  0.75415355    -0.78600
O19         O  0.21784112  0.80287107  0.81836185    -0.78500
O20         O  0.19533289  0.74074511  0.69851478    -0.78600
Co21       Co  0.23873508  0.71290706  0.78542809     1.51500
Co22       Co  0.27708951  0.78233345  0.69846171     1.51700
Co23       Co  0.23550426  0.71047385  0.71455605     1.51600
Co24       Co  0.24273102  0.78546333  0.77504366     1.51500
O25         O  0.26036804  0.74905973  0.74129695    -1.40500
C26         C  0.20342313  0.77182216  0.82383132     1.11100
C27         C  0.20376211  0.75913216  0.67072526     1.11100
C28         C  0.20127654  0.66190652  0.73574898     1.11100
C29         C  0.21583918  0.82734157  0.72023450     1.11100
O30         O  0.71960044  0.20589343  0.66406725    -0.78600
O31         O  0.77246936  0.18625018  0.83225846    -0.78600
O32         O  0.80931315  0.19572940  0.72180670    -0.78600
O33         O  0.68154126  0.22036372  0.77133688    -0.78500
O34         O  0.82325020  0.19064112  0.77650073    -0.78700
O35         O  0.71229722  0.18422740  0.73593853    -0.78600
O36         O  0.72757376  0.22393953  0.82546212    -0.78600
O37         O  0.77787744  0.22429171  0.66526285    -0.78600
C38         C  0.75057216  0.21010602  0.64843436     1.11100
C39         C  0.74303325  0.19974890  0.84378877     1.11000
C40         C  0.83218160  0.18657457  0.74398850     1.11100
C41         C  0.68477936  0.19029597  0.75636798     1.11000
O42         O  0.68398972  0.24905098  0.71268997    -0.78600
O43         O  0.82001525  0.24168128  0.79978750    -0.78600
O44         O  0.79377632  0.29533055  0.69356621    -0.78600
O45         O  0.74907065  0.29543392  0.80798626    -0.78600
O46         O  0.78936760  0.25434235  0.82138069    -0.78600
O47         O  0.73964588  0.27373494  0.68136762    -0.78600
O48         O  0.69783767  0.29264530  0.74958202    -0.78500
O49         O  0.83847305  0.26495409  0.74692489    -0.78600
Co50       Co  0.73187851  0.22705623  0.70883535     1.51500
Co51       Co  0.77426233  0.21292643  0.78809828     1.51700
Co52       Co  0.80227224  0.24595868  0.71079597     1.51600
Co53       Co  0.71754692  0.25868508  0.78497340     1.51500
O54         O  0.75934336  0.24506458  0.74902605    -1.40500
C55         C  0.67693546  0.27888256  0.72631146     1.11100
C56         C  0.84379775  0.25917728  0.78018796     1.11100
C57         C  0.76382713  0.29823770  0.67762417     1.11100
C58         C  0.77478493  0.28461184  0.82744080     1.11100
O59         O  0.66372002  0.71413468  0.23001373    -0.78600
O60         O  0.81597474  0.78543511  0.22053195    -0.78600
O61         O  0.68867599  0.82197025  0.23180324    -0.78600
O62         O  0.74636032  0.68975775  0.18993594    -0.78500
O63         O  0.74367138  0.81613011  0.20850328    -0.78700
O64         O  0.71378113  0.65895529  0.22858863    -0.78600
O65         O  0.79338395  0.74500700  0.18757498    -0.78600
O66         O  0.69057475  0.75773744  0.19922531    -0.78600
C67         C  0.66303021  0.73746105  0.20480776     1.11100
C68         C  0.82063117  0.76413456  0.19480584     1.11000
C69         C  0.71395335  0.83427393  0.21184644     1.11100
C70         C  0.73207725  0.66049953  0.19935841     1.11000
O71         O  0.74058201  0.68225631  0.29714966    -0.78600
O72         O  0.78008973  0.83131032  0.26576804    -0.78600
O73         O  0.66349355  0.76893095  0.26990915    -0.78600
O74         O  0.82338758  0.72419101  0.25636153    -0.78600
O75         O  0.79419396  0.76344111  0.28945571    -0.78600
O76         O  0.69166888  0.73246247  0.30174904    -0.78600
O77         O  0.77780415  0.66311798  0.25587650    -0.78500
O78         O  0.72857327  0.80782631  0.28786360    -0.78600
Co79       Co  0.70431990  0.69927804  0.26372812     1.51500
Co80       Co  0.76767803  0.78560656  0.24963473     1.51700
Co81       Co  0.71096320  0.77973010  0.24252414     1.51600
Co82       Co  0.78330115  0.70717850  0.22300620     1.51500
O83         O  0.74263438  0.73640126  0.24511533    -1.40500
C84         C  0.76040278  0.65806536  0.28550339     1.11100
C85         C  0.75364859  0.83286565  0.28781788     1.11100
C86         C  0.66237767  0.74694088  0.29541955     1.11100
C87         C  0.82276959  0.74620844  0.28230873     1.11100
C88         C  0.51930747  0.00352954  0.03690794     0.03900
C89         C  0.51843679  0.02843535  0.00845349     0.03900
C90         C  0.49300612  0.02433764  0.98073820     0.03900
C91         C  0.46668328  0.99614350  0.98341301     0.03900
C92         C  0.46640853  0.97209765  0.01299295     0.03900
C93         C  0.49332810  0.97536577  0.03935691     0.03900
C94         C  0.67532049  0.97779696  0.17626354     0.04700
C95         C  0.65154228  0.98073159  0.14754769    -0.11400
C96         C  0.63647643  0.01305927  0.13802042     0.02200
C97         C  0.64700168  0.04377721  0.15669753    -0.10000
C98         C  0.67098933  0.04202233  0.18567026     0.04700
C99         C  0.68508418  0.00873484  0.19558521    -0.09400
H100        H  0.64343629  0.95691751  0.13333092     0.10300
H101        H  0.63612498  0.06919733  0.14907040     0.07800
H102        H  0.70308593  0.00694890  0.21812544     0.07700
C103        C  0.64707596  0.20091723  0.03669938     0.04700
C104        C  0.61886404  0.17464522  0.03654607    -0.11400
C105        C  0.61699582  0.14965237  0.00904166     0.02200
C106        C  0.64068575  0.15311930  0.97963346    -0.10000
C107        C  0.66730455  0.18015476  0.97807423     0.04700
C108        C  0.67148121  0.20341879  0.00700901    -0.09400
H109        H  0.59913827  0.17258799  0.05847088     0.10300
H110        H  0.63812476  0.13485071  0.95744075     0.07800
H111        H  0.69346986  0.22300456  0.00617417     0.07700
C112        C  0.33535782  0.02354484  0.82738801     0.04700
C113        C  0.33341995  0.99634626  0.80161763    -0.11400
C114        C  0.34774268  0.96232852  0.80878918     0.02200
C115        C  0.36510487  0.95717960  0.84172941    -0.10000
C116        C  0.36932035  0.98513598  0.86594937     0.04700
C117        C  0.35386300  0.01786329  0.85897570    -0.09400
H118        H  0.32125349  0.00216593  0.77607141     0.10300
H119        H  0.37524439  0.93153744  0.84908148     0.07800
H120        H  0.35745597  0.03965203  0.87767825     0.07700
C121        C  0.48518614  0.17575470  0.82408818     0.04700
C122        C  0.51605927  0.17337286  0.80068912    -0.11400
C123        C  0.54296585  0.14750793  0.80605789     0.02200
C124        C  0.53517377  0.12071098  0.83192853    -0.10000
C125        C  0.50800094  0.12486288  0.85885305     0.04700
C126        C  0.48532445  0.15450791  0.85564857    -0.09400
H127        H  0.51954917  0.19192502  0.77828813     0.10300
H128        H  0.55102506  0.09749013  0.83107449     0.07800
H129        H  0.46747866  0.16121259  0.87754863     0.07700
C130        C  0.46966230  0.83281850  0.19096727     0.04700
C131        C  0.49789847  0.80823111  0.19193681    -0.11400
C132        C  0.53317252  0.81680076  0.17728808     0.02200
C133        C  0.53772119  0.85048532  0.15980774    -0.10000
C134        C  0.50791901  0.87287878  0.15452828     0.04700
C135        C  0.47469041  0.86435526  0.17171263    -0.09400
H136        H  0.49106694  0.78220810  0.20253488     0.10300
H137        H  0.56398114  0.85957231  0.14935744     0.07800
H138        H  0.45124201  0.88058410  0.16740130     0.07700
C139        C  0.30100774  0.83000101  0.03325624     0.04700
C140        C  0.29660793  0.80999855  0.00140269    -0.11400
C141        C  0.31813420  0.81815730  0.97024142     0.02200
C142        C  0.34576504  0.84487593  0.97246786    -0.10000
C143        C  0.35018821  0.86531658  0.00351788     0.04700
C144        C  0.32631437  0.85869102  0.03255941    -0.09400
H145        H  0.27664294  0.78848043  0.00071851     0.10300
H146        H  0.36355632  0.85024456  0.94955571     0.07800
H147        H  0.32844190  0.87555737  0.05586167     0.07700
C148        C  0.03601396  0.53876540  0.99388575     0.03900
C149        C  0.03746905  0.50899653  0.97024129     0.03900
C150        C  0.00929261  0.48244635  0.97193743     0.03900
C151        C  0.97976616  0.48569530  0.99642930     0.03900
C152        C  0.97806340  0.51532994  0.01953292     0.03900
C153        C  0.00643077  0.54183706  0.01914466     0.03900
C154        C  0.17639005  0.70328579  0.96217913     0.04700
C155        C  0.14759900  0.67773574  0.96385924    -0.11400
C156        C  0.14219469  0.65554320  0.99371242     0.02200
C157        C  0.16371386  0.66108371  0.02374944    -0.10000
C158        C  0.19070433  0.68836490  0.02418372     0.04700
C159        C  0.19781298  0.70878143  0.99283031    -0.09400
H160        H  0.12999964  0.67404286  0.94118057     0.10300
H161        H  0.15903321  0.64437021  0.04720899     0.07800
H162        H  0.21967463  0.72874973  0.99242949     0.07700
C163        C  0.18677333  0.52513304  0.80970049     0.04700
C164        C  0.20537084  0.49320529  0.80388384    -0.11400
C165        C  0.20016368  0.46361021  0.82758759     0.02200
C166        C  0.17442374  0.46694063  0.85637933    -0.10000
C167        C  0.15358142  0.49773507  0.86089092     0.04700
C168        C  0.16104070  0.52676981  0.83793436    -0.09400
H169        H  0.22405383  0.49186781  0.78105161     0.10300
H170        H  0.17027509  0.44563289  0.87538902     0.07800
H171        H  0.14704111  0.55143151  0.84232565     0.07700
C172        C  0.96258677  0.70062199  0.16254493     0.04700
C173        C  0.96834008  0.67897647  0.13191488    -0.11400
C174        C  0.99408345  0.65146971  0.13157792     0.02200
C175        C  0.01618196  0.64876587  0.16183966    -0.10000
C176        C  0.01844609  0.67585417  0.18767339     0.04700
C177        C  0.98977445  0.70042457  0.18932497    -0.09400
H178        H  0.95237112  0.68379200  0.10864121     0.10300
H179        H  0.03330507  0.62619294  0.16502492     0.07800
H180        H  0.98865777  0.71882813  0.21124454     0.07700
C181        C  0.80290593  0.53348991  0.15005643     0.04700
C182        C  0.79794752  0.50067754  0.16817618    -0.11400
C183        C  0.82026858  0.47206792  0.15949025     0.02200
C184        C  0.84842806  0.47665616  0.13404102    -0.10000
C185        C  0.85393895  0.50905212  0.11621653     0.04700
C186        C  0.83023948  0.53685236  0.12298960    -0.09400
H187        H  0.77726114  0.49743134  0.18928065     0.10300
H188        H  0.86630462  0.45485235  0.12818060     0.07800
H189        H  0.83436490  0.56167097  0.10847478     0.07700
C190        C  0.04135971  0.30550858  0.86132675     0.04700
C191        C  0.03890843  0.33527068  0.88361654    -0.11400
C192        C  0.00568354  0.35220857  0.88928122     0.02200
C193        C  0.97422802  0.33847432  0.87267142    -0.10000
C194        C  0.97616833  0.30851292  0.85030648     0.04700
C195        C  0.00981169  0.29205183  0.84480941    -0.09400
H196        H  0.06361375  0.34658712  0.89489932     0.10300
H197        H  0.94842355  0.35129112  0.87669585     0.07800
H198        H  0.01172043  0.26986951  0.82650806     0.07700
C199        C  0.83999564  0.31889285  0.02913339     0.04700
C200        C  0.82762372  0.30817625  0.99487832    -0.11400
C201        C  0.83325046  0.33003388  0.96402344     0.02200
C202        C  0.85466224  0.36132251  0.96753454    -0.10000
C203        C  0.86961268  0.37142557  0.00046787     0.04700
C204        C  0.86040786  0.35109794  0.03130070    -0.09400
H205        H  0.81383833  0.28259638  0.99208551     0.10300
H206        H  0.86012081  0.37795848  0.94425673     0.07800
H207        H  0.86885449  0.36090452  0.05708455     0.07700
C208        C  0.47905879  0.52180052  0.51012851     0.03900
C209        C  0.48180648  0.49554901  0.53696739     0.03900
C210        C  0.51130202  0.47220419  0.53521290     0.03900
C211        C  0.53813102  0.47528249  0.50739547     0.03900
C212        C  0.53464412  0.50182322  0.48068954     0.03900
C213        C  0.50528462  0.52527448  0.48210398     0.03900
C214        C  0.53644089  0.32242148  0.68383652     0.04700
C215        C  0.53829078  0.34963132  0.65825568    -0.11400
C216        C  0.50861299  0.35647669  0.63681592     0.02200
C217        C  0.47706132  0.33480595  0.64068251    -0.10000
C218        C  0.47417269  0.30752691  0.66676687     0.04700
C219        C  0.50425531  0.30190508  0.68886319    -0.09400
H220        H  0.56406079  0.36381038  0.65339997     0.10300
H221        H  0.45460381  0.33918741  0.62294125     0.07800
H222        H  0.50342174  0.28100942  0.70897523     0.07700
C223        C  0.31894670  0.65783343  0.52221053     0.04700
C224        C  0.34662375  0.63349388  0.52548392    -0.11400
C225        C  0.35947086  0.61501275  0.49592394     0.02200
C226        C  0.34338526  0.61994524  0.46259245    -0.10000
C227        C  0.31447677  0.64332744  0.45880298     0.04700
C228        C  0.30231562  0.66272415  0.48887198    -0.09400
H229        H  0.35828762  0.62895875  0.55156673     0.10300
H230        H  0.35380205  0.60607563  0.43927555     0.07800
H231        H  0.28071717  0.68163142  0.48624701     0.07700
C232        C  0.68924637  0.52630127  0.32782730     0.04700
C233        C  0.69567155  0.49142246  0.31530672    -0.11400
C234        C  0.67090115  0.46301528  0.32356079     0.02200
C235        C  0.64125248  0.46893785  0.34648863    -0.10000
C236        C  0.63442382  0.50284680  0.35971850     0.04700
C237        C  0.65708501  0.53162902  0.34834683    -0.09400
H238        H  0.72019516  0.48571824  0.30015222     0.10300
H239        H  0.62391551  0.44642023  0.35486635     0.07800
H240        H  0.64980552  0.55812400  0.35631263     0.07700
C241        C  0.46174538  0.65647134  0.31575518     0.04700
C242        C  0.45991830  0.63540683  0.34748563    -0.11400
C243        C  0.49090220  0.63122968  0.36895568     0.02200
C244        C  0.52304127  0.65043295  0.35982547    -0.10000
C245        C  0.52559118  0.67187275  0.32900934     0.04700
C246        C  0.49559933  0.67332658  0.30633853    -0.09400
H247        H  0.43436939  0.62268704  0.35604429     0.10300
H248        H  0.54674483  0.64800415  0.37630070     0.07800
H249        H  0.49911852  0.68761916  0.28109431     0.07700
C250        C  0.33096483  0.52786729  0.69245764     0.04700
C251        C  0.30813822  0.49735533  0.69889098    -0.11400
C252        C  0.31459665  0.46520837  0.68064261     0.02200
C253        C  0.34335181  0.46404173  0.65512019    -0.10000
C254        C  0.36625207  0.49377078  0.64774083     0.04700
C255        C  0.36001396  0.52517563  0.66709488    -0.09400
H256        H  0.28568302  0.49835859  0.71810057     0.10300
H257        H  0.34855485  0.43912519  0.64177722     0.07800
H258        H  0.37801247  0.54790929  0.66217908     0.07700
C259        C  0.70705132  0.35048628  0.54829304     0.04700
C260        C  0.67907093  0.37524799  0.54412679    -0.11400
C261        C  0.65913733  0.37737808  0.51222410     0.02200
C262        C  0.66814602  0.35462929  0.48378486    -0.10000
C263        C  0.69621100  0.33014225  0.48696206     0.04700
C264        C  0.71555436  0.32819780  0.51914227    -0.09400
H265        H  0.67231900  0.39262946  0.56609722     0.10300
H266        H  0.65402218  0.35657841  0.45865868     0.07800
H267        H  0.73659058  0.30869689  0.52163388     0.07700
C268        C  0.95907806  0.99263886  0.47325831     0.03900
C269        C  0.98311562  0.96380687  0.47369622     0.03900
C270        C  0.00919977  0.96179007  0.50101123     0.03900
C271        C  0.01284076  0.98925865  0.52626019     0.03900
C272        C  0.98880948  0.01780436  0.52570603     0.03900
C273        C  0.96144285  0.01925159  0.49982878     0.03900
C274        C  0.04013301  0.16566902  0.67067435     0.04700
C275        C  0.00849765  0.17330724  0.69119033    -0.11400
C276        C  0.97531277  0.15494224  0.68446178     0.02200
C277        C  0.97459855  0.12881893  0.65788783    -0.10000
C278        C  0.00564584  0.12130140  0.63735499     0.04700
C279        C  0.03838143  0.13975320  0.64388321    -0.09400
H280        H  0.00969123  0.19332314  0.71189075     0.10300
H281        H  0.94902523  0.11491171  0.65231893     0.07800
H282        H  0.06285596  0.13329269  0.62880456     0.07700
C283        C  0.17909117  0.02768193  0.65974664     0.04700
C284        C  0.18963436  0.99478792  0.67459469    -0.11400
C285        C  0.17049395  0.96301488  0.66685608     0.02200
C286        C  0.14185649  0.96367635  0.64277518    -0.10000
C287        C  0.13075482  0.99570675  0.62753926     0.04700
C288        C  0.14933085  0.02772540  0.63636707    -0.09400
H289        H  0.21283497  0.99371827  0.69197291     0.10300
H290        H  0.12836884  0.93881337  0.63560445     0.07800
H291        H  0.13991100  0.05272862  0.62586660     0.07700
C292        C  0.16350129  0.81923487  0.47507547     0.04700
C293        C  0.17214575  0.80532720  0.50895322    -0.11400
C294        C  0.14862408  0.80930779  0.53909505     0.02200
C295        C  0.11784871  0.83033192  0.53508071    -0.10000
C296        C  0.11102876  0.84760660  0.50253835     0.04700
C297        C  0.13277506  0.84028581  0.47222823    -0.09400
H298        H  0.19739667  0.79133593  0.51146406     0.10300
H299        H  0.09949407  0.83412967  0.55742197     0.07800
H300        H  0.12574720  0.85110532  0.44636321     0.07700
C301        C  0.80763053  0.16904396  0.51182910     0.04700
C302        C  0.80726947  0.18608750  0.47794264    -0.11400
C303        C  0.83122142  0.17556807  0.45019100     0.02200
C304        C  0.85555092  0.14837492  0.45690434    -0.10000
C305        C  0.85733298  0.13196877  0.49064274     0.04700
C306        C  0.83300472  0.14233022  0.51794401    -0.09400
H307        H  0.78819236  0.20708377  0.47313517     0.10300
H308        H  0.87346634  0.13999710  0.43545215     0.07800
H309        H  0.83475264  0.13077727  0.54452861     0.07700
C310        C  0.80895682  0.03172230  0.32503329     0.04700
C311        C  0.79100319  0.99896524  0.31766395    -0.11400
C312        C  0.79705562  0.96841064  0.33905733     0.02200
C313        C  0.82100905  0.97220746  0.36782057    -0.10000
C314        C  0.84199557  0.00331557  0.37281345     0.04700
C315        C  0.83531993  0.03334210  0.35175384    -0.09400
H316        H  0.77260558  0.99784152  0.29549176     0.10300
H317        H  0.82429966  0.95047781  0.38629509     0.07800
H318        H  0.84975599  0.05827400  0.35688207     0.07700
C319        C  0.02406507  0.81928916  0.32080921     0.04700
C320        C  0.99313043  0.79691622  0.31571245    -0.11400
C321        C  0.96034295  0.80289482  0.33442795     0.02200
C322        C  0.95933229  0.82982573  0.36038336    -0.10000
C323        C  0.98968266  0.85230349  0.36635061     0.04700
C324        C  0.02162438  0.84725854  0.34579716    -0.09400
H325        H  0.99402171  0.77552273  0.29644457     0.10300
H326        H  0.93388437  0.83456975  0.37452615     0.07800
H327        H  0.04473470  0.86517340  0.34945698     0.07700
O328        O  0.25691150  0.18765881  0.69815924    -0.78600
O329        O  0.20857297  0.32038991  0.71240598    -0.78600
O330        O  0.17985114  0.21353508  0.74890850    -0.78600
O331        O  0.31097288  0.24729308  0.69567725    -0.78500
O332        O  0.20227998  0.24382032  0.70239825    -0.78700
O333        O  0.33465458  0.19526894  0.70128783    -0.78600
O334        O  0.26159578  0.29917448  0.70120038    -0.78600
O335        O  0.22902740  0.16496414  0.74583687    -0.78600
C336        C  0.23794786  0.16251038  0.71302519     1.11100
C337        C  0.24189004  0.32658606  0.70290447     1.11000
C338        C  0.17854437  0.22200593  0.71604038     1.11100
C339        C  0.33875778  0.22789105  0.69158600     1.11000
O340        O  0.33044211  0.21604328  0.76964908    -0.78600
O341        O  0.18124671  0.27353159  0.77037358    -0.78600
O342        O  0.26208609  0.18424677  0.81001502    -0.78600
O343        O  0.29223891  0.32210543  0.77080049    -0.78600
O344        O  0.23483455  0.31036206  0.77756148    -0.78600
O345        O  0.29264034  0.16518831  0.76179292    -0.78600
O346        O  0.34466802  0.27145393  0.76330760    -0.78500
O347        O  0.20392273  0.24122595  0.81453732    -0.78600
Co348      Co  0.29336678  0.20879514  0.73227177     1.51500
Co349      Co  0.22457822  0.27717757  0.73805557     1.51700
Co350      Co  0.22235742  0.20466054  0.77958573     1.51600
Co351      Co  0.29968424  0.28221682  0.73504391     1.51500
O352        O  0.25952868  0.24195015  0.75749497    -1.40500
C353        C  0.35201627  0.24138253  0.77564435     1.11100
C354        C  0.17984620  0.26254560  0.80276896     1.11100
C355        C  0.28364331  0.16202643  0.79476779     1.11100
C356        C  0.26187798  0.32969226  0.78461930     1.11100
O357        O  0.75580118  0.19080564  0.29335339    -0.78600
O358        O  0.75531399  0.33168878  0.21425182    -0.78600
O359        O  0.79060224  0.22791725  0.18074101    -0.78600
O360        O  0.81668504  0.25990330  0.29440553    -0.78500
O361        O  0.76718889  0.28022361  0.17413730    -0.78700
O362        O  0.77464995  0.22009974  0.31360022    -0.78600
O363        O  0.80546816  0.31396964  0.24035167    -0.78600
O364        O  0.77243031  0.17906673  0.23668015    -0.78600
C365        C  0.76971074  0.16989597  0.26961019     1.11100
C366        C  0.78895998  0.33581850  0.22043436     1.11000
C367        C  0.78958004  0.25722516  0.16409542     1.11100
C368        C  0.80730031  0.23345493  0.31418934     1.11000
O369        O  0.70997847  0.23588547  0.33918891    -0.78600
O370        O  0.69740877  0.30052368  0.17579667    -0.78600
O371        O  0.69761371  0.20598567  0.23068291    -0.78600
O372        O  0.73955606  0.32873547  0.27846344    -0.78600
O373        O  0.69358336  0.30166669  0.25125156    -0.78600
O374        O  0.70228219  0.18782386  0.28351163    -0.78600
O375        O  0.75030580  0.28052107  0.33049197    -0.78500
O376        O  0.71226042  0.24340154  0.17524989    -0.78600
Co377      Co  0.72769169  0.23685703  0.29069701     1.51500
Co378      Co  0.72867296  0.28556576  0.21353988     1.51700
Co379      Co  0.74539260  0.21610469  0.20891365     1.51600
Co380      Co  0.77754920  0.29252802  0.28212415     1.51500
O381        O  0.75385738  0.25522945  0.24745421    -1.40500
C382        C  0.72749565  0.26283640  0.35127761     1.11100
C383        C  0.69447531  0.26951275  0.16226328     1.11100
C384        C  0.69384648  0.18057592  0.25172598     1.11100
C385        C  0.70596346  0.32626718  0.27142480     1.11100
O386        O  0.29837829  0.68741425  0.24137837    -0.78600
O387        O  0.16103162  0.69356546  0.29892307    -0.78600
O388        O  0.27292884  0.72139415  0.32673747    -0.78600
O389        O  0.23871915  0.69220457  0.19107523    -0.78500
O390        O  0.23862416  0.68019239  0.30097144    -0.78700
O391        O  0.29201194  0.70732559  0.16825038    -0.78600
O392        O  0.18516504  0.68647120  0.24619891    -0.78600
O393        O  0.32273766  0.72841227  0.27585640    -0.78600
C394        C  0.32462217  0.69845415  0.26056866     1.11100
C395        C  0.15617287  0.68597006  0.26596947     1.11000
C396        C  0.26186709  0.68931633  0.32444875     1.11100
C397        C  0.25897274  0.69751551  0.16292375     1.11000
O398        O  0.26665649  0.77133285  0.18688352    -0.78600
O399        O  0.21130330  0.74325957  0.33278525    -0.78600
O400        O  0.30214898  0.79788245  0.25682908    -0.78600
O401        O  0.16093657  0.75723969  0.22673641    -0.78600
O402        O  0.17716159  0.76195391  0.28149626    -0.78600
O403        O  0.32079076  0.75755895  0.21781024    -0.78600
O404        O  0.21088328  0.76204336  0.17333428    -0.78500
O405        O  0.24544905  0.79023247  0.31609434    -0.78600
Co406      Co  0.27637776  0.72751289  0.21407519     1.51500
Co407      Co  0.20688136  0.71994459  0.28566121     1.51700
Co408      Co  0.28209721  0.75957498  0.29051118     1.51600
Co409      Co  0.20218388  0.72606310  0.21259110     1.51500
O410        O  0.24353821  0.74379293  0.25301206    -1.40500
C411        C  0.24053051  0.77819726  0.16736490     1.11100
C412        C  0.22445058  0.77413191  0.33934570     1.11100
C413        C  0.32457561  0.78790825  0.23219151     1.11100
C414        C  0.15649775  0.77065636  0.25711799     1.11100
C415        C  0.05973958  0.80156449  0.26471921     0.25200
C416        C  0.05910644  0.81314844  0.30079257    -0.22900
C417        C  0.09263321  0.81772259  0.31819156     0.20100
C418        C  0.12518394  0.80940534  0.30089297     0.25100
C419        C  0.12520685  0.79298980  0.26706556    -0.22900
C420        C  0.09245429  0.79106793  0.24821188     0.20000
F421        F  0.09160358  0.77699989  0.21479597    -0.12800
F422        F  0.02866634  0.79938129  0.24562797    -0.15200
F423        F  0.15665213  0.81471023  0.31883007    -0.15200
F424        F  0.09416444  0.82733224  0.35317406    -0.12800
C425        C  0.81310474  0.07841642  0.27590402     0.25200
C426        C  0.79743825  0.06536259  0.30828057    -0.22900
C427        C  0.77224549  0.08604642  0.32683270     0.20100
C428        C  0.76296505  0.11934772  0.31368444     0.25100
C429        C  0.77932048  0.13341253  0.28174859    -0.22900
C430        C  0.80398425  0.11215241  0.26256186     0.20000
F431        F  0.82026115  0.12446398  0.23175492    -0.12800
F432        F  0.83791569  0.05890133  0.25779994    -0.15200
F433        F  0.73779453  0.13777149  0.33258857    -0.15200
F434        F  0.75705310  0.07418528  0.35836665    -0.12800
C435        C  0.83162830  0.16950807  0.38327162     0.25200
C436        C  0.83136429  0.19172578  0.41357434    -0.22900
C437        C  0.83439054  0.22882726  0.40814992     0.20100
C438        C  0.83447366  0.24312770  0.37319357     0.25100
C439        C  0.83030509  0.22075780  0.34338939    -0.22900
C440        C  0.83251826  0.18405066  0.34873882     0.20000
F441        F  0.83433041  0.16217166  0.32026352    -0.12800
F442        F  0.82920712  0.13354657  0.38697403    -0.15200
F443        F  0.83614580  0.27893485  0.36846604    -0.15200
F444        F  0.83669488  0.25117021  0.43651740    -0.12800
C445        C  0.19523144  0.83509779  0.41560330     0.25200
C446        C  0.18475177  0.80958778  0.44218608    -0.22900
C447        C  0.19226396  0.77374018  0.43597878     0.20100
C448        C  0.20804603  0.76333605  0.40360389     0.25100
C449        C  0.21565306  0.78821449  0.37565095    -0.22900
C450        C  0.21066116  0.82447899  0.38255843     0.20000
F451        F  0.21896510  0.84933896  0.35691902    -0.12800
F452        F  0.18997386  0.87021020  0.42141329    -0.15200
F453        F  0.21480359  0.72824147  0.39926491    -0.15200
F454        F  0.18214364  0.74813644  0.46035646    -0.12800
C455        C  0.20628764  0.09027881  0.64700403     0.25200
C456        C  0.19724096  0.06193017  0.67119292    -0.22900
C457        C  0.20499351  0.06664191  0.70753239     0.20100
C458        C  0.22105970  0.09811323  0.71951571     0.25100
C459        C  0.22801892  0.12754727  0.69618475    -0.22900
C460        C  0.22144558  0.12289754  0.65944906     0.20000
F461        F  0.22867227  0.14995301  0.63587881    -0.12800
F462        F  0.20044928  0.08648092  0.61139762    -0.15200
F463        F  0.22877627  0.09982456  0.75494098    -0.15200
F464        F  0.19529788  0.04134059  0.73237302    -0.12800
C465        C  0.12314338  0.22841727  0.67746926     0.25200
C466        C  0.14681561  0.20688550  0.69680777    -0.22900
C467        C  0.13517074  0.17180604  0.70585624     0.20100
C468        C  0.10071108  0.15890721  0.69695812     0.25100
C469        C  0.07639141  0.18081479  0.67951071    -0.22900
C470        C  0.08798214  0.21539561  0.66890150     0.20000
F471        F  0.06514137  0.23653572  0.65075990    -0.12800
F472        F  0.13294946  0.26260777  0.66919183    -0.15200
F473        F  0.09049318  0.12511837  0.70661929    -0.15200
F474        F  0.15626183  0.15048608  0.72572827    -0.12800
C475        C  0.96964704  0.87514643  0.42696891     0.25200
C476        C  0.98739275  0.88141877  0.39347961    -0.22900
C477        C  0.00263460  0.91570064  0.38636338     0.20100
C478        C  0.00099238  0.94240790  0.41233921     0.25100
C479        C  0.98234613  0.93622932  0.44512836    -0.22900
C480        C  0.96642531  0.90248146  0.45205973     0.20000
F481        F  0.94860261  0.89567031  0.48368356    -0.12800
F482        F  0.95644671  0.84215694  0.43607204    -0.15200
F483        F  0.01864155  0.97404460  0.40587943    -0.15200
F484        F  0.01882838  0.92368945  0.35415798    -0.12800
C485        C  0.93600561  0.01117291  0.41320336     0.25200
C486        C  0.92982402  0.99433693  0.44657954    -0.22900
C487        C  0.89457022  0.98222189  0.45629939     0.20100
C488        C  0.86561421  0.98745226  0.43338642     0.25100
C489        C  0.87173614  0.00304796  0.39925213    -0.22900
C490        C  0.90735500  0.01474021  0.38931323     0.20000
F491        F  0.91467650  0.02856277  0.35612419    -0.12800
F492        F  0.96965626  0.02437520  0.40386678    -0.15200
F493        F  0.83147493  0.97735049  0.44470704    -0.15200
F494        F  0.88812894  0.96574579  0.48838376    -0.12800
C495        C  0.87648864  0.07285211  0.51611255     0.25200
C496        C  0.88508742  0.10431788  0.49652666    -0.22900
C497        C  0.92013116  0.10825246  0.48037040     0.20100
C498        C  0.94438157  0.08033190  0.48084165     0.25100
C499        C  0.93563518  0.04907363  0.50008945    -0.22900
C500        C  0.90208273  0.04599677  0.51878619     0.20000
F501        F  0.89370416  0.01649714  0.53877931    -0.12800
F502        F  0.84290997  0.06727236  0.53137539    -0.15200
F503        F  0.97628420  0.08363523  0.46194581    -0.15200
F504        F  0.93108206  0.13918719  0.46393705    -0.12800
C505        C  0.01631563  0.10210423  0.57384091     0.25200
C506        C  0.00302252  0.09442512  0.60878858    -0.22900
C507        C  0.98488897  0.06158963  0.61586589     0.20100
C508        C  0.97881525  0.03756271  0.58829396     0.25100
C509        C  0.99186299  0.04534717  0.55352976    -0.22900
C510        C  0.01104295  0.07749358  0.54645160     0.20000
F511        F  0.02526744  0.08470305  0.51325868    -0.12800
F512        F  0.03371263  0.13362534  0.56602080    -0.15200
F513        F  0.96077815  0.00627023  0.59558807    -0.15200
F514        F  0.97346484  0.05256007  0.64965380    -0.12800
C515        C  0.04034716  0.97117200  0.58466184     0.25200
C516        C  0.04340947  0.98974836  0.55194979    -0.22900
C517        C  0.07475010  0.01093224  0.54446267     0.20100
C518        C  0.10290059  0.01331892  0.56913866     0.25100
C519        C  0.09994411  0.99495645  0.60213235    -0.22900
C520        C  0.06810895  0.97407926  0.60974248     0.20000
F521        F  0.06351309  0.95697339  0.64178406    -0.12800
F522        F  0.01015359  0.95077098  0.59261220    -0.15200
F523        F  0.13350188  0.03274418  0.56024735    -0.15200
F524        F  0.07805594  0.02928556  0.51304723    -0.12800
C525        C  0.06812925  0.93589598  0.48326876     0.25200
C526        C  0.03467939  0.93215902  0.50157568    -0.22900
C527        C  0.02576819  0.90058860  0.52038825     0.20100
C528        C  0.04962423  0.87224546  0.51951960     0.25100
C529        C  0.08354877  0.87584578  0.50110628    -0.22900
C530        C  0.09264371  0.90831443  0.48349712     0.20000
F531        F  0.12597356  0.91409587  0.46777697    -0.12800
F532        F  0.07734784  0.96675655  0.46584074    -0.15200
F533        F  0.03931884  0.84139845  0.53647358    -0.15200
F534        F  0.99411996  0.89734739  0.53977343    -0.12800
C535        C  0.73922689  0.31630580  0.43669936     0.25200
C536        C  0.70653326  0.30838062  0.45543585    -0.22900
C537        C  0.68237449  0.28240225  0.44168847     0.20100
C538        C  0.69018935  0.26566460  0.40893310     0.25100
C539        C  0.72181800  0.27546740  0.38878285    -0.22900
C540        C  0.74656498  0.30054228  0.40358673     0.20000
F541        F  0.77726663  0.31132509  0.38538087    -0.12800
F542        F  0.76312552  0.34113449  0.44941525    -0.15200
F543        F  0.66576268  0.24143163  0.39607086    -0.15200
F544        F  0.65074223  0.27389715  0.45958428    -0.12800
C545        C  0.25604018  0.42705341  0.68515984     0.25200
C546        C  0.29404026  0.43127251  0.68940914    -0.22900
C547        C  0.31394471  0.40126198  0.69836617     0.20100
C548        C  0.29703863  0.36774329  0.70150141     0.25100
C549        C  0.25895047  0.36304799  0.69791834    -0.22900
C550        C  0.23856295  0.39327010  0.68981738     0.20000
F551        F  0.20216180  0.38981592  0.68452620    -0.12800
F552        F  0.23619518  0.45514003  0.67477518    -0.15200
F553        F  0.31863084  0.33988924  0.70818239    -0.15200
F554        F  0.35041694  0.40431278  0.70371802    -0.12800
C555        C  0.42382512  0.69663178  0.27742724     0.25200
C556        C  0.42820863  0.66313678  0.29393270    -0.22900
C557        C  0.39923765  0.63753425  0.29076400     0.20100
C558        C  0.36552263  0.64694714  0.27599237     0.25100
C559        C  0.36084333  0.68151876  0.26261001    -0.22900
C560        C  0.39154200  0.70476190  0.26061691     0.20000
F561        F  0.38909118  0.73754693  0.24555539    -0.12800
F562        F  0.44918220  0.72337499  0.28019857    -0.15200
F563        F  0.33688259  0.62336770  0.27746475    -0.15200
F564        F  0.40300267  0.60371988  0.30280860    -0.12800
C565        C  0.67559894  0.39705725  0.33319752     0.25200
C566        C  0.67583665  0.42648284  0.30954823    -0.22900
C567        C  0.67861091  0.42045057  0.27244738     0.20100
C568        C  0.68245731  0.38582860  0.25933520     0.25100
C569        C  0.68460412  0.35675432  0.28309511    -0.22900
C570        C  0.68057830  0.36270082  0.32010786     0.20000
F571        F  0.68465826  0.33559917  0.34380410    -0.12800
F572        F  0.67279513  0.40179856  0.36922268    -0.15200
F573        F  0.68765912  0.38109245  0.22355511    -0.15200
F574        F  0.67836475  0.44818223  0.24893483    -0.12800
C575        C  0.32472757  0.66190944  0.39541530     0.25200
C576        C  0.30036455  0.64966128  0.42240368    -0.22900
C577        C  0.26350806  0.64339611  0.41398867     0.20100
C578        C  0.25091441  0.65152523  0.37946854     0.25100
C579        C  0.27516712  0.66578395  0.35303297    -0.22900
C580        C  0.31239671  0.66957916  0.36129327     0.20000
F581        F  0.33637549  0.68526070  0.33768556    -0.12800
F582        F  0.36020880  0.66933813  0.40291354    -0.15200
F583        F  0.21465458  0.64896524  0.37311484    -0.15200
F584        F  0.23962511  0.63057823  0.43947988    -0.12800
C585        C  0.37378646  0.28026941  0.66690325     0.25200
C586        C  0.37387167  0.24485135  0.67939837    -0.22900
C587        C  0.40755276  0.22879085  0.68444438     0.20100
C588        C  0.44031322  0.24845578  0.67875788     0.25100
C589        C  0.43987413  0.28521131  0.67021882    -0.22900
C590        C  0.40586273  0.30066703  0.66449934     0.20000
F591        F  0.40291746  0.33614183  0.65847118    -0.12800
F592        F  0.34225034  0.29596329  0.65810469    -0.15200
F593        F  0.47225754  0.23147078  0.68208079    -0.15200
F594        F  0.40887562  0.19457690  0.69608992    -0.12800
C595        C  0.44898259  0.57814829  0.52498416     0.25200
C596        C  0.44722107  0.54442293  0.50951695    -0.22900
C597        C  0.41664338  0.53350016  0.49017302     0.20100
C598        C  0.38795257  0.55641988  0.48584191     0.25100
C599        C  0.38986202  0.59074803  0.50042558    -0.22900
C600        C  0.42056212  0.60137064  0.52033888     0.20000
F601        F  0.42358328  0.63451994  0.53443215    -0.12800
F602        F  0.47876729  0.58888886  0.54349867    -0.15200
F603        F  0.35816975  0.54489951  0.46779515    -0.15200
F604        F  0.41508407  0.50093086  0.47472454    -0.12800
C605        C  0.42063701  0.47306871  0.56148783     0.25200
C606        C  0.45336667  0.49247388  0.56645639    -0.35500
C607        C  0.45822238  0.51051684  0.59890545     0.20100
C608        C  0.43072920  0.50974790  0.62565156     0.25100
C609        C  0.39683189  0.49204789  0.62011985    -0.22900
C610        C  0.39250514  0.47321346  0.58762364     0.20000
F611        F  0.36065174  0.45582076  0.58029619    -0.12800
F612        F  0.41560816  0.45440827  0.53088830    -0.15200
F613        F  0.43779300  0.52585905  0.65730914    -0.15200
F614        F  0.48964802  0.52926761  0.60463446    -0.12800
C615        C  0.51488400  0.58762895  0.45792609     0.25200
C616        C  0.50095920  0.55284502  0.45345919    -0.22900
C617        C  0.48154189  0.54465808  0.42238209     0.20100
C618        C  0.47731048  0.57034907  0.39549420     0.25100
C619        C  0.49132868  0.60530360  0.39962827    -0.22900
C620        C  0.50950492  0.61379766  0.43170035     0.20000
F621        F  0.52220158  0.64745432  0.43772498    -0.12800
F622        F  0.53386793  0.59619991  0.48767961    -0.15200
F623        F  0.46102030  0.56044150  0.36463713    -0.15200
F624        F  0.46701148  0.51149346  0.41783458    -0.12800
C625        C  0.55079246  0.48422753  0.41850231     0.25200
C626        C  0.55969162  0.50332281  0.44934995    -0.22900
C627        C  0.59104542  0.52530121  0.44945888     0.20100
C628        C  0.61459067  0.52661105  0.41959961     0.25100
C629        C  0.60636919  0.50677736  0.38863450    -0.22900
C630        C  0.57333746  0.48668643  0.38801641     0.20000
F631        F  0.56305493  0.46896760  0.35809851    -0.12800
F632        F  0.52031010  0.46296012  0.41808911    -0.15200
F633        F  0.64632221  0.54574465  0.42191280    -0.15200
F634        F  0.59925539  0.54483831  0.47882929    -0.12800
C635        C  0.63267792  0.43832267  0.52129557     0.25200
C636        C  0.62865640  0.40305650  0.50895204    -0.22900
C637        C  0.59490527  0.39241055  0.49429240     0.20100
C638        C  0.56607530  0.41619113  0.49253176     0.25100
C639        C  0.56974247  0.45074485  0.50644283    -0.22900
C640        C  0.60338059  0.46158590  0.52066146     0.20000
F641        F  0.60773642  0.49470268  0.53443957    -0.12800
F642        F  0.66520087  0.45052995  0.53364505    -0.15200
F643        F  0.53435734  0.40526662  0.47754412    -0.15200
F644        F  0.58925401  0.35857596  0.48273021    -0.12800
C645        C  0.52963734  0.44645678  0.59345694     0.25200
C646        C  0.51212733  0.44248105  0.56075694    -0.22900
C647        C  0.49438349  0.41032206  0.55240172     0.20100
C648        C  0.49503117  0.38169891  0.57612581     0.25100
C649        C  0.51101559  0.38576795  0.60997560    -0.22900
C650        C  0.52853496  0.41856825  0.61829052     0.20000
F651        F  0.54360366  0.42421667  0.65079108    -0.12800
F652        F  0.54687639  0.47767384  0.60165590    -0.15200
F653        F  0.48056444  0.34996231  0.56552349    -0.15200
F654        F  0.47615082  0.40679812  0.52124720    -0.12800
C655        C  0.79590384  0.28020092  0.06661128     0.25200
C656        C  0.83032007  0.29764043  0.06281237    -0.22900
C657        C  0.85400145  0.29630375  0.09253673     0.20100
C658        C  0.84233967  0.28055390  0.12542542     0.25100
C659        C  0.80782704  0.26383629  0.12876368    -0.22900
C660        C  0.78552028  0.26266366  0.09857068     0.20000
F661        F  0.75189457  0.24682121  0.10102846    -0.12800
F662        F  0.77067404  0.28248940  0.04062614    -0.15200
F663        F  0.86389770  0.28339356  0.15448616    -0.15200
F664        F  0.88819355  0.31091970  0.09033370    -0.12800
C665        C  0.09156893  0.26032972  0.85827560     0.25200
C666        C  0.07799800  0.29398593  0.84966991    -0.22900
C667        C  0.09958323  0.31768761  0.82878887     0.20100
C668        C  0.13361947  0.30796488  0.81584381     0.25100
C669        C  0.14774778  0.27431291  0.82404576    -0.22900
C670        C  0.12636015  0.25053187  0.84556247     0.20000
F671        F  0.13773112  0.21701497  0.85175242    -0.12800
F672        F  0.07088938  0.23682405  0.87821372    -0.15200
F673        F  0.15185596  0.33101873  0.79323907    -0.15200
F674        F  0.08671724  0.34988917  0.81921128    -0.12800
C675        C  0.80790029  0.40744846  0.15350980     0.25200
C676        C  0.81460234  0.43665814  0.17586756    -0.22900
C677        C  0.81790914  0.43130073  0.21295909     0.20100
C678        C  0.81399771  0.39694178  0.22754215     0.25100
C679        C  0.80649693  0.36787172  0.20513648    -0.22900
C680        C  0.80382886  0.37340133  0.16801776     0.20000
F681        F  0.79438691  0.34615329  0.14610022    -0.12800
F682        F  0.80337552  0.41223129  0.11773422    -0.15200
F683        F  0.81442349  0.39243085  0.26368891    -0.15200
F684        F  0.82415300  0.45932930  0.23497400    -0.12800
C685        C  0.05306277  0.68927605  0.24636094     0.25200
C686        C  0.05260161  0.67845541  0.21003578    -0.22900
C687        C  0.08634114  0.66940930  0.19401517     0.20100
C688        C  0.11828832  0.66872796  0.21357326     0.25100
C689        C  0.11943267  0.68083718  0.24909505    -0.22900
C690        C  0.08621631  0.69105091  0.26544358     0.20000
F691        F  0.08577284  0.70317390  0.29963275    -0.12800
F692        F  0.02166480  0.69791643  0.26361384    -0.15200
F693        F  0.14855830  0.65612372  0.19712445    -0.15200
F694        F  0.08920795  0.66232687  0.15846500    -0.12800
C695        C  0.25609858  0.42833299  0.80641329     0.25200
C696        C  0.22044691  0.42905610  0.82207731    -0.22900
C697        C  0.20427261  0.39578601  0.83236854     0.20100
C698        C  0.22217299  0.36388473  0.82621642     0.25100
C699        C  0.25455398  0.36296542  0.80550529    -0.22900
C700        C  0.27251869  0.39573673  0.79758790     0.20000
F701        F  0.30536271  0.39638598  0.78025056    -0.12800
F702        F  0.27519729  0.45903067  0.79917861    -0.15200
F703        F  0.20641425  0.33311095  0.83877225    -0.15200
F704        F  0.16976997  0.39310932  0.84603940    -0.12800
C705        C  0.18842675  0.69716225  0.09009646     0.25200
C706        C  0.20960855  0.69527236  0.05846527    -0.22900
C707        C  0.24789160  0.69662651  0.06090869     0.20100
C708        C  0.26440703  0.69768578  0.09472456     0.25100
C709        C  0.24281947  0.69691457  0.12651284    -0.22900
C710        C  0.20462721  0.69733705  0.12344260     0.20000
F711        F  0.18239418  0.69879756  0.15276499    -0.12800
F712        F  0.15151452  0.69867577  0.08876810    -0.15200
F713        F  0.30134037  0.69840426  0.09629526    -0.15200
F714        F  0.26922867  0.69541229  0.03081383    -0.12800
C715        C  0.09926030  0.48756143  0.94977061     0.25200
C716        C  0.06742361  0.50611377  0.94252634    -0.22900
C717        C  0.06332020  0.52049980  0.90806941     0.20100
C718        C  0.09066581  0.51693437  0.88154626     0.25100
C719        C  0.12372657  0.50003114  0.88918814    -0.22900
C720        C  0.12756578  0.48558434  0.92394789     0.20000
F721        F  0.15903759  0.47027556  0.93350366    -0.12800
F722        F  0.10296723  0.47114742  0.98195839    -0.15200
F723        F  0.08416546  0.52926670  0.84802394    -0.15200
F724        F  0.03228587  0.53737099  0.89981615    -0.12800
C725        C  0.05413022  0.60223741  0.98059153     0.25200
C726        C  0.06418868  0.56795613  0.99110384    -0.22900
C727        C  0.10006611  0.56266966  0.00218110     0.20100
C728        C  0.12543060  0.59102445  0.00246803     0.25100
C729        C  0.11514926  0.62552010  0.99281877    -0.22900
C730        C  0.07920999  0.63085613  0.98183446     0.20000
F731        F  0.06799797  0.66396705  0.97345243    -0.12800
F732        F  0.01951258  0.60814869  0.97030284    -0.15200
F733        F  0.16013023  0.58473801  0.01229740    -0.15200
F734        F  0.10991126  0.53072382  0.01534782    -0.12800
C735        C  0.03321181  0.57904925  0.06967862     0.25200
C736        C  0.00492656  0.57235476  0.04556892    -0.22900
C737        C  0.97428878  0.59403888  0.04797379     0.20100
C738        C  0.96967986  0.61785936  0.07650825     0.25100
C739        C  0.99830202  0.62541693  0.10051504    -0.22900
C740        C  0.03117226  0.60682884  0.09457165     0.20000
F741        F  0.06211871  0.61546341  0.11210512    -0.12800
F742        F  0.06290660  0.55833821  0.06979444    -0.15200
F743        F  0.93638429  0.63212288  0.08086591    -0.15200
F744        F  0.94823523  0.59189209  0.02278469    -0.12800
C745        C  0.95116716  0.50931588  0.08151105     0.25200
C746        C  0.94666876  0.51725752  0.04511771    -0.22900
C747        C  0.91177591  0.52505890  0.03269164     0.20100
C748        C  0.88147480  0.52278366  0.05583840     0.25100
C749        C  0.88587145  0.51394173  0.09202118    -0.22900
C750        C  0.92100824  0.50811060  0.10492459     0.20000
F751        F  0.92594735  0.50087716  0.14019897    -0.12800
F752        F  0.98462719  0.50203286  0.09412652    -0.15200
F753        F  0.84775862  0.52792562  0.04268680    -0.15200
F754        F  0.90716773  0.53534420  0.99819426    -0.12800
C755        C  0.95433662  0.42785807  0.02185437     0.25200
C756        C  0.95078150  0.45705858  0.99866323    -0.22900
C757        C  0.91984268  0.45881543  0.97731956     0.20100
C758        C  0.89197599  0.43283983  0.98043952     0.25100
C759        C  0.89626550  0.40224624  0.00198345    -0.22900
C760        C  0.92810007  0.40008339  0.02254090     0.20000
F761        F  0.93480865  0.37045053  0.04209300    -0.12800
F762        F  0.98393791  0.42566115  0.04293187    -0.15200
F763        F  0.86074641  0.43788367  0.96239212    -0.15200
F764        F  0.91672924  0.48557949  0.95307265    -0.12800
C765        C  0.02208413  0.38679952  0.94428843     0.25200
C766        C  0.00517542  0.38550495  0.91072723    -0.22900
C767        C  0.99047610  0.41688473  0.89682776     0.20100
C768        C  0.99295312  0.44882081  0.91603059     0.25100
C769        C  0.01060190  0.45005184  0.94913819    -0.22900
C770        C  0.02510659  0.41879752  0.96304231     0.20000
F771        F  0.04135057  0.41911229  0.99541825    -0.12800
F772        F  0.03508782  0.35679534  0.95929995    -0.15200
F773        F  0.97765365  0.47843576  0.90259196    -0.15200
F774        F  0.97443489  0.41684116  0.86432812    -0.12800
C775        C  0.29863364  0.82776639  0.10120465     0.25200
C776        C  0.28125563  0.82104578  0.06819584    -0.22900
C777        C  0.24522445  0.80661323  0.06980287     0.20100
C778        C  0.22906902  0.79589756  0.10295027     0.25100
C779        C  0.24785182  0.80113501  0.13518453    -0.22900
C780        C  0.28073171  0.82087554  0.13379505     0.20000
F781        F  0.29734930  0.83081060  0.16448588    -0.12800
F782        F  0.33423506  0.83838371  0.10269298    -0.15200
F783        F  0.19583210  0.77921357  0.10328239    -0.15200
F784        F  0.22578190  0.80216339  0.03951727    -0.12800
C785        C  0.37208853  0.80173616  0.18583868     0.25200
C786        C  0.35815415  0.80797573  0.22081799    -0.22900
C787        C  0.38135323  0.82393461  0.24602702     0.20100
C788        C  0.41819175  0.83151730  0.23686778     0.25100
C789        C  0.43201762  0.82310998  0.20254876    -0.22900
C790        C  0.40840386  0.80930403  0.17693365     0.20000
F791        F  0.42086147  0.80246107  0.14319305    -0.12800
F792        F  0.35120405  0.78555047  0.16074428    -0.15200
F793        F  0.44049946  0.84632022  0.26158148    -0.15200
F794        F  0.36921880  0.82961698  0.28007270    -0.12800
C795        C  0.42104338  0.24479879  0.78134983     0.25200
C796        C  0.38656529  0.23322846  0.79476580    -0.22900
C797        C  0.38556139  0.20649625  0.82123562     0.20100
C798        C  0.41694038  0.18811335  0.83013887     0.25100
C799        C  0.45196423  0.19821601  0.81585932    -0.22900
C800        C  0.45331705  0.22821584  0.79225746     0.20000
F801        F  0.48550659  0.24158464  0.77893121    -0.12800
F802        F  0.42345777  0.27096571  0.75612335    -0.15200
F803        F  0.41166852  0.15826993  0.85041816    -0.15200
F804        F  0.35318972  0.19601442  0.83672847    -0.12800
C805        C  0.28566381  0.06826042  0.83034082     0.25200
C806        C  0.32162468  0.05951207  0.82088682    -0.22900
C807        C  0.34601436  0.08629192  0.80865865     0.20100
C808        C  0.33415756  0.12079279  0.80348477     0.25100
C809        C  0.29793570  0.12996923  0.81218328    -0.22900
C810        C  0.27389838  0.10336825  0.82619037     0.20000
F811        F  0.23828857  0.11051978  0.83247241    -0.12800
F812        F  0.26180272  0.04260474  0.84269269    -0.15200
F813        F  0.35731026  0.14442003  0.78657549    -0.15200
F814        F  0.38115849  0.07865040  0.80037958    -0.12800
C815        C  0.64681635  0.20743412  0.10335019     0.25200
C816        C  0.65268081  0.22307755  0.06921888    -0.22900
C817        C  0.66584500  0.25882923  0.06715693     0.20100
C818        C  0.67600557  0.27698121  0.09840987     0.25100
C819        C  0.67125793  0.26025928  0.13196688    -0.22900
C820        C  0.65371476  0.22665072  0.13411493     0.20000
F821        F  0.64802573  0.21019130  0.16640105    -0.12800
F822        F  0.63825861  0.17223057  0.10740121    -0.15200
F823        F  0.69368781  0.30909083  0.09558946    -0.15200
F824        F  0.67066836  0.27561573  0.03500576    -0.12800
C825        C  0.67668204  0.11427562  0.25738720     0.25200
C826        C  0.68947910  0.14377845  0.23682682    -0.22900
C827        C  0.69922902  0.13810941  0.20038604     0.20100
C828        C  0.69486265  0.10472613  0.18474645     0.25100
C829        C  0.68059727  0.07566068  0.20470167    -0.22900
C830        C  0.67200765  0.08052966  0.24135235     0.20000
F831        F  0.65734125  0.05307648  0.26109839    -0.12800
F832        F  0.66737916  0.11832820  0.29247418    -0.15200
F833        F  0.70419029  0.10091490  0.14955193    -0.15200
F834        F  0.71349706  0.16487899  0.17940471    -0.12800
C835        C  0.45355569  0.97808972  0.92072041     0.25200
C836        C  0.44079884  0.99020954  0.95404548    -0.22900
C837        C  0.40362225  0.99708980  0.95911095     0.20100
C838        C  0.37953961  0.99204363  0.93113982     0.25100
C839        C  0.39263372  0.98184582  0.89724818    -0.22900
C840        C  0.42969485  0.97436138  0.89229127     0.20000
F841        F  0.44319038  0.96581374  0.85938432    -0.12800
F842        F  0.48942858  0.97140288  0.91539515    -0.15200
F843        F  0.34367112  0.99878401  0.93654394    -0.15200
F844        F  0.39104119  0.01090771  0.99033062    -0.12800
C845        C  0.40495494  0.94790310  0.03197837     0.25200
C846        C  0.43866655  0.94268453  0.01484648    -0.22900
C847        C  0.44378892  0.91179962  0.99480018     0.20100
C848        C  0.41552911  0.88636620  0.99178008     0.25100
C849        C  0.38056024  0.89254775  0.00667861    -0.22900
C850        C  0.37565829  0.92419900  0.02640441     0.20000
F851        F  0.34223824  0.93338279  0.03893549    -0.12800
F852        F  0.39972353  0.97731451  0.05220453    -0.15200
F853        F  0.42279531  0.85557505  0.97460998    -0.15200
F854        F  0.47608851  0.90666142  0.97750671    -0.12800
C855        C  0.60492131  0.08468956  0.00369199     0.25200
C856        C  0.59164887  0.11871546  0.01093539    -0.22900
C857        C  0.55418814  0.12289781  0.01746458     0.20100
C858        C  0.53035314  0.09338330  0.01654868     0.25100
C859        C  0.54369067  0.05965837  0.00857171    -0.22900
C860        C  0.58103394  0.05562225  0.00163718     0.20000
F861        F  0.59432694  0.02376123  0.99174743    -0.12800
F862        F  0.64113627  0.07960800  0.99827839    -0.15200
F863        F  0.49419930  0.09764422  0.02301178    -0.15200
F864        F  0.54058384  0.15558698  0.02349310    -0.12800
C865        C  0.53275829  0.07708862  0.90083933     0.25200
C866        C  0.50356863  0.09849841  0.89000708    -0.22900
C867        C  0.46997117  0.09370734  0.90936314     0.20100
C868        C  0.46680191  0.07070974  0.93921667     0.25100
C869        C  0.49552153  0.04873128  0.94847171    -0.22900
C870        C  0.52777012  0.05106404  0.92763570     0.20000
F871        F  0.55494727  0.02808732  0.93340041    -0.12800
F872        F  0.56696020  0.08167996  0.88691077    -0.15200
F873        F  0.43551092  0.07017677  0.95921837    -0.15200
F874        F  0.43948614  0.11044935  0.89945609    -0.12800
C875        C  0.48268394  0.95628259  0.10337087     0.25200
C876        C  0.49606876  0.94876875  0.06883388    -0.22900
C877        C  0.51648340  0.91817200  0.06347139     0.20100
C878        C  0.52261589  0.89477947  0.09193043     0.25100
C879        C  0.50849040  0.90157693  0.12657212    -0.22900
C880        C  0.48913059  0.93318471  0.13206010     0.20000
F881        F  0.47605122  0.94156678  0.16518276    -0.12800
F882        F  0.46340764  0.98608906  0.10927496    -0.15200
F883        F  0.54089209  0.86458856  0.08503439    -0.15200
F884        F  0.53064615  0.91099126  0.03050960    -0.12800
C885        C  0.58074882  0.98682524  0.05746121     0.25200
C886        C  0.54899265  0.00601195  0.06320715    -0.22900
C887        C  0.54637481  0.02871853  0.09270251     0.20100
C888        C  0.57518532  0.03196046  0.11654917     0.25100
C889        C  0.60756108  0.01323962  0.11057232    -0.22900
C890        C  0.61022134  0.99130591  0.08008833     0.20000
F891        F  0.64143604  0.97421831  0.07193934    -0.12800
F892        F  0.58359502  0.96445554  0.02916109    -0.15200
F893        F  0.57066768  0.05221257  0.14620484    -0.15200
F894        F  0.51557171  0.04715175  0.09873715    -0.12800
C895        C  0.78436588  0.86716815  0.33379370     0.25200
C896        C  0.75383243  0.86321558  0.31241186    -0.22900
C897        C  0.73398150  0.89351244  0.30392259     0.20100
C898        C  0.74631853  0.92754907  0.31455557     0.25100
C899        C  0.78034242  0.93210633  0.33151550    -0.22900
C900        C  0.79906391  0.90083182  0.34081822     0.20000
F901        F  0.83354938  0.90202011  0.35331620    -0.12800
F902        F  0.80281258  0.83809717  0.34401603    -0.15200
F903        F  0.72550347  0.95579196  0.30687188    -0.15200
F904        F  0.70428209  0.89048866  0.28290231    -0.12800
C905        C  0.67104208  0.87814630  0.18952374     0.25200
C906        C  0.70757719  0.86953128  0.19539241    -0.22900
C907        C  0.73410855  0.89734795  0.19568189     0.20100
C908        C  0.72400228  0.93296508  0.19024311     0.25100
C909        C  0.68709068  0.94128416  0.18586390    -0.22900
C910        C  0.66081610  0.91329617  0.18646202     0.20000
F911        F  0.62465211  0.91996342  0.18472158    -0.12800
F912        F  0.64439604  0.85236051  0.18915561    -0.15200
F913        F  0.75015171  0.95918467  0.18923574    -0.15200
F914        F  0.76923828  0.89036879  0.20322632    -0.12800
C915        C  0.86102317  0.72409131  0.15819535     0.25200
C916        C  0.85801255  0.75375050  0.18095357    -0.22900
C917        C  0.89080864  0.76894706  0.19385014     0.20100
C918        C  0.92494598  0.75344675  0.18619590     0.25100
C919        C  0.92730558  0.72118627  0.16677175    -0.22900
C920        C  0.89435309  0.70728528  0.15258753     0.20000
F921        F  0.89337327  0.67590627  0.13479103    -0.12800
F922        F  0.83114702  0.71009691  0.14203923    -0.15200
F923        F  0.95555913  0.77039026  0.19777637    -0.15200
F924        F  0.88996473  0.79867716  0.21424072    -0.12800
C925        C  0.86448523  0.79505869  0.30151641     0.25200
C926        C  0.85760726  0.75823581  0.29876574    -0.22900
C927        C  0.88600364  0.73514085  0.30694413     0.20100
C928        C  0.91983930  0.74903206  0.31884939     0.25100
C929        C  0.92542228  0.78612410  0.32278266    -0.22900
C930        C  0.89732796  0.80871078  0.31364400     0.20000
F931        F  0.90240512  0.84465827  0.31418409    -0.12800
F932        F  0.84083351  0.81862472  0.28894422    -0.15200
F933        F  0.94691605  0.72643957  0.32647819    -0.15200
F934        F  0.88115560  0.69946081  0.30311711    -0.12800
C935        C  0.73756652  0.61744534  0.33531579     0.25200
C936        C  0.75446898  0.62162491  0.30127072    -0.22900
C937        C  0.75624079  0.59149898  0.27919820     0.20100
C938        C  0.73581110  0.56033173  0.28769279     0.25100
C939        C  0.71541453  0.55732944  0.32020301    -0.22900
C940        C  0.71918478  0.58552782  0.34502322     0.20000
F941        F  0.70432794  0.58288026  0.37860285    -0.12800
F942        F  0.73718809  0.64499927  0.35869352    -0.15200
F943        F  0.73412162  0.53445406  0.26258180    -0.15200
F944        F  0.77552133  0.59295531  0.24789717    -0.12800
C945        C  0.78524052  0.62836729  0.17582037     0.25200
C946        C  0.74752836  0.62792855  0.18376787    -0.22900
C947        C  0.72770620  0.59551729  0.18156046     0.20100
C948        C  0.74513785  0.56459212  0.16987829     0.25100
C949        C  0.78291778  0.56553313  0.16156143    -0.22900
C950        C  0.80266448  0.59771266  0.16554409     0.20000
F951        F  0.83959765  0.59921462  0.16183867    -0.12800
F952        F  0.80639361  0.65779142  0.18160183    -0.15200
F953        F  0.72515238  0.53390598  0.16681563    -0.15200
F954        F  0.69187271  0.59367053  0.19130207    -0.12800
C955        C  0.59499703  0.74133462  0.20924734     0.25200
C956        C  0.62744782  0.74827660  0.18956263    -0.22900
C957        C  0.62641536  0.77318650  0.16125821     0.20100
C958        C  0.59496412  0.79285722  0.15520740     0.25100
C959        C  0.56448528  0.79079412  0.17941793    -0.22900
C960        C  0.56506120  0.76354899  0.20604602     0.20000
F961        F  0.53814530  0.75934346  0.23120265    -0.12800
F962        F  0.59311240  0.71477051  0.23406914    -0.15200
F963        F  0.59514512  0.81404287  0.12562026    -0.15200
F964        F  0.65642746  0.77956319  0.14003301    -0.12800
C965        C  0.59403143  0.74735922  0.30600264     0.25200
C966        C  0.62734820  0.72973575  0.30791008    -0.22900
C967        C  0.62656914  0.69313174  0.31683316     0.20100
C968        C  0.59357152  0.67445967  0.32225526     0.25100
C969        C  0.56030169  0.69193899  0.32061127    -0.22900
C970        C  0.56081065  0.72871688  0.31276112     0.20000
F971        F  0.52920227  0.74664338  0.31188642    -0.12800
F972        F  0.59358042  0.78238768  0.29695241    -0.15200
F973        F  0.59417962  0.63873718  0.32791412    -0.15200
F974        F  0.65773782  0.67454204  0.31840201    -0.12800
C975        C  0.88550333  0.26173765  0.83351967     0.25200
C976        C  0.87815570  0.27199459  0.79772385    -0.22900
C977        C  0.90463434  0.29329596  0.77908375     0.20100
C978        C  0.93664195  0.30493241  0.79607107     0.25100
C979        C  0.94311017  0.29525120  0.83181189    -0.22900
C980        C  0.91752046  0.27329364  0.85018296     0.20000
F981        F  0.92373708  0.26275183  0.88438423    -0.12800
F982        F  0.86191767  0.24026899  0.85274075    -0.15200
F983        F  0.96128908  0.32595514  0.77768610    -0.15200
F984        F  0.89971783  0.30293568  0.74441289    -0.12800
C985        C  0.89804981  0.16831427  0.75336804     0.25200
C986        C  0.86900749  0.17609351  0.73053631    -0.22900
C987        C  0.87607360  0.17699477  0.69311461     0.20100
C988        C  0.91087974  0.17197010  0.67913127     0.25100
C989        C  0.93989873  0.16432143  0.70159137    -0.22900
C990        C  0.93321493  0.16212615  0.73891569     0.20000
F991        F  0.96033104  0.15299194  0.76115064    -0.12800
F992        F  0.89244929  0.16641846  0.78942119    -0.15200
F993        F  0.91620182  0.17446074  0.64301097    -0.15200
F994        F  0.84934080  0.18320485  0.66935605    -0.12800
C995        C  0.74475905  0.18481102  0.90945926     0.25200
C996        C  0.72506108  0.18994218  0.87799827    -0.22900
C997        C  0.68681195  0.19208012  0.88015443     0.20100
C998        C  0.66863969  0.18957144  0.91287832     0.25100
C999        C  0.68811363  0.18488986  0.94438628    -0.22900
C1000       C  0.72623114  0.18226256  0.94268821     0.20000
F1001       F  0.74524883  0.17703952  0.97303240    -0.12800
F1002       F  0.78172161  0.18428854  0.90825313    -0.15200
F1003       F  0.63176943  0.19243914  0.91388279    -0.15200
F1004       F  0.66681447  0.19818977  0.85059203    -0.12800
C1005       C  0.82001003  0.32119533  0.86209020     0.25200
C1006       C  0.78603701  0.30354015  0.86041486    -0.22900
C1007       C  0.76690960  0.29571692  0.89273475     0.20100
C1008       C  0.78172100  0.30474379  0.92605912     0.25100
C1009       C  0.81691237  0.32078681  0.92814901    -0.22900
C1010       C  0.83570871  0.32896017  0.89531618     0.20000
F1011       F  0.87030191  0.34263328  0.89493213    -0.12800
F1012       F  0.83864894  0.32998336  0.83140621    -0.15200
F1013       F  0.76142965  0.29749534  0.95619960    -0.15200
F1014       F  0.73434945  0.27769181  0.89211886    -0.12800
C1015       C  0.64725088  0.14678006  0.79236587     0.25200
C1016       C  0.65241573  0.16592174  0.76026737    -0.22900
C1017       C  0.62147582  0.17322726  0.73997189     0.20100
C1018       C  0.58603735  0.16438157  0.75298451     0.25100
C1019       C  0.58039564  0.14946989  0.78765976    -0.22900
C1020       C  0.61198893  0.13951768  0.80643889     0.20000
F1021       F  0.60941013  0.12596864  0.84023028    -0.12800
F1022       F  0.67654229  0.13861132  0.81222674    -0.15200
F1023       F  0.55742195  0.17185162  0.73198705    -0.15200
F1024       F  0.62539038  0.19207468  0.70887596    -0.12800
C1025       C  0.62921264  0.28566791  0.68165121     0.25200
C1026       C  0.64255418  0.29453363  0.71567310    -0.22900
C1027       C  0.62001757  0.31232974  0.74027329     0.20100
C1028       C  0.58431176  0.32049459  0.73092270     0.25100
C1029       C  0.57115339  0.31037994  0.69728144    -0.22900
C1030       C  0.59376834  0.29293957  0.67290309     0.20000
F1031       F  0.58149009  0.28352903  0.64006114    -0.12800
F1032       F  0.65045216  0.26933664  0.65680149    -0.15200
F1033       F  0.56272255  0.33811354  0.75441727    -0.15200
F1034       F  0.63195697  0.32045031  0.77353091    -0.12800
C1035       C  0.71991101  0.33772079  0.64881351     0.25200
C1036       C  0.75605864  0.32651906  0.65061652    -0.22900
C1037       C  0.77841885  0.33109141  0.61966929     0.20100
C1038       C  0.76313843  0.34063482  0.58652627     0.25100
C1039       C  0.72526856  0.34619596  0.58389541    -0.22900
C1040       C  0.70426618  0.34593509  0.61595957     0.20000
F1041       F  0.66766513  0.35024440  0.61540591    -0.12800
F1042       F  0.69856475  0.33746817  0.67880550    -0.15200
F1043       F  0.78508165  0.34272598  0.55679205    -0.15200
F1044       F  0.81410377  0.32252517  0.62052511    -0.12800
C1045       C  0.77522289  0.22602253  0.58796273     0.25200
C1046       C  0.75650160  0.20112119  0.61026274    -0.22900
C1047       C  0.74905958  0.16684284  0.59711993     0.20100
C1048       C  0.76334904  0.15686617  0.56347397     0.25100
C1049       C  0.78479545  0.18124353  0.54251793    -0.22900
C1050       C  0.78897715  0.21639148  0.55438409     0.20000
F1051       F  0.80928118  0.24065862  0.53498855    -0.12800
F1052       F  0.78214534  0.25938177  0.59972963    -0.15200
F1053       F  0.75773560  0.12298507  0.55206381    -0.15200
F1054       F  0.73068951  0.14230888  0.61793384    -0.12800
C1055       C  0.29690931  0.74835128  0.89765537     0.25200
C1056       C  0.29970596  0.76921562  0.86600650    -0.22900
C1057       C  0.30972100  0.80553149  0.86933079     0.20100
C1058       C  0.31431448  0.82097496  0.90288142     0.25100
C1059       C  0.31171688  0.80043189  0.93468291    -0.22900
C1060       C  0.30343540  0.76363501  0.93151631     0.20000
F1061       F  0.30166988  0.74230357  0.96104504    -0.12800
F1062       F  0.28700355  0.71335114  0.89604834    -0.15200
F1063       F  0.31940688  0.85686949  0.90401925    -0.15200
F1064       F  0.31301324  0.82722742  0.84010241    -0.12800
C1065       C  0.18243113  0.72094870  0.86244406     0.25200
C1066       C  0.19358742  0.75702518  0.85996152    -0.22900
C1067       C  0.19865294  0.77610464  0.89196467     0.20100
C1068       C  0.19284641  0.75910053  0.92549612     0.25100
C1069       C  0.18407002  0.72231213  0.92746570    -0.22900
C1070       C  0.18031582  0.70343398  0.89524544     0.20000
F1071       F  0.17497564  0.66750997  0.89513447    -0.12800
F1072       F  0.17364204  0.70197376  0.83290609    -0.15200
F1073       F  0.19507567  0.77873434  0.95580807    -0.15200
F1074       F  0.20882302  0.81107118  0.89091724    -0.12800
C1075       C  0.18316335  0.88478846  0.73094756     0.25200
C1076       C  0.19682235  0.85914485  0.70723858    -0.22900
C1077       C  0.20246284  0.86874343  0.67078761     0.20100
C1078       C  0.19445961  0.90255126  0.65826924     0.25100
C1079       C  0.18109643  0.92818184  0.68175211    -0.22900
C1080       C  0.17551984  0.91921479  0.71826661     0.20000
F1081       F  0.16320319  0.94392136  0.74160445    -0.12800
F1082       F  0.17994829  0.87748331  0.76658299    -0.15200
F1083       F  0.20117344  0.91079719  0.62318726    -0.15200
F1084       F  0.21794475  0.84580287  0.64738031    -0.12800
C1085       C  0.30209433  0.89481682  0.74793073     0.25200
C1086       C  0.32436737  0.86513317  0.75194342    -0.22900
C1087       C  0.35842462  0.87012145  0.76763582     0.20100
C1088       C  0.36813508  0.90336404  0.78238898     0.25100
C1089       C  0.34275589  0.93130179  0.78391621    -0.22900
C1090       C  0.31031369  0.92690671  0.76474165     0.20000
F1091       F  0.28431493  0.95191865  0.76517457    -0.12800
F1092       F  0.26969088  0.89148097  0.73126033    -0.15200
F1093       F  0.40172094  0.90751451  0.79662908    -0.15200
F1094       F  0.38088971  0.84229627  0.77135363    -0.12800
C1095       C  0.31908397  0.72530136  0.59671867     0.25200
C1096       C  0.30431503  0.70438711  0.62511226    -0.22900
C1097       C  0.29216741  0.66920227  0.61806867     0.20100
C1098       C  0.29391030  0.65556286  0.58366201     0.25100
C1099       C  0.30838433  0.67631572  0.55525812    -0.22900
C1100       C  0.32123331  0.71121278  0.56190055     0.20000
F1101       F  0.33638650  0.73124806  0.53481056    -0.12800
F1102       F  0.32971241  0.75963619  0.60228976    -0.15200
F1103       F  0.28225130  0.62145848  0.57810545    -0.15200
F1104       F  0.27668477  0.64835534  0.64443910    -0.12800
C1105       C  0.17465383  0.75961068  0.57619018     0.25200
C1106       C  0.15644085  0.79224660  0.57467345    -0.22900
C1107       C  0.14660472  0.80838968  0.60772249     0.20100
C1108       C  0.15628267  0.79322148  0.64047795     0.25100
C1109       C  0.17862101  0.76375354  0.64107189    -0.22900
C1110       C  0.18650621  0.74626005  0.60886086     0.20000
F1111       F  0.20808990  0.71746333  0.60878513    -0.12800
F1112       F  0.18223692  0.74087682  0.54609599    -0.15200
F1113       F  0.14679909  0.80941526  0.67154316    -0.15200
F1114       F  0.13054904  0.84045861  0.60894779    -0.12800
C1115       C  0.30408039  0.59912719  0.76207773     0.25200
C1116       C  0.30836712  0.63060244  0.74146249    -0.22900
C1117       C  0.32561711  0.62810571  0.70756771     0.20100
C1118       C  0.33080494  0.59522291  0.69145288     0.25100
C1119       C  0.32448559  0.56310902  0.71070159    -0.22900
C1120       C  0.31282822  0.56575224  0.74710827     0.20000
F1121       F  0.30943864  0.53618152  0.76812580    -0.12800
F1122       F  0.29052530  0.60044220  0.79614469    -0.15200
F1123       F  0.33945625  0.59528786  0.65588432    -0.15200
F1124       F  0.33482596  0.65797297  0.68844212    -0.12800
C1125       C  0.20551673  0.62259052  0.79024465     0.25200
C1126       C  0.19855506  0.62596336  0.75334126    -0.22900
C1127       C  0.19045415  0.59466831  0.73398313     0.20100
C1128       C  0.18787851  0.56125953  0.75161533     0.25100
C1129       C  0.19478165  0.55843831  0.78856577    -0.22900
C1130       C  0.20474748  0.58939776  0.80717923     0.20000
F1131       F  0.21306716  0.58758149  0.84247137    -0.12800
F1132       F  0.21346522  0.65141020  0.81047288    -0.15200
F1133       F  0.17691399  0.53209677  0.73304379    -0.15200
F1134       F  0.18343474  0.59656229  0.69842453    -0.12800
loop_ 
_geom_bond_atom_site_label_1 
_geom_bond_atom_site_label_2 
_geom_bond_distance 
_geom_bond_site_symmetry_2 
_ccdc_geom_bond_type 
O1            C9   1.261       .  A
O1          Co21   2.039       .  S
O2           C10   1.290       .  A
O2          Co22   2.023       .  S
O3           C11   1.261       .  A
O3          Co23   1.952       .  S
O4           C12   1.245       .  A
O4          Co24   1.969       .  S
O5           C11   1.282       .  A
O5          Co22   2.017       .  S
O6           C12   1.251       .  A
O6          Co21   2.008       .  S
O7           C10   1.276       .  A
O7          Co24   1.976       .  S
O8            C9   1.247       .  A
O8          Co23   1.958       .  S
C9         C1116   1.501       .  S
C10        C1086   1.480       .  S
C11        C1096   1.472       .  S
C12        C1056   1.499       .  S
O13          C26   1.282       .  A
O13         Co21   2.026       .  S
O14          C27   1.273       .  A
O14         Co22   2.007       .  S
O15          C28   1.272       .  A
O15         Co23   1.970       .  S
O16          C29   1.274       .  A
O16         Co24   2.016       .  S
O17          C29   1.258       .  A
O17         Co22   1.966       .  S
O18          C28   1.279       .  A
O18         Co21   2.023       .  S
O19          C26   1.282       .  A
O19         Co24   1.965       .  S
O20          C27   1.270       .  A
O20         Co23   1.985       .  S
Co21         O25   2.246       .  S
Co22         O25   2.094       .  S
Co23         O25   1.979       .  S
Co24         O25   1.978       .  S
C26        C1066   1.488       .  S
C27        C1109   1.466       .  S
C28        C1126   1.498       .  S
C29        C1076   1.483       .  S
O30          C38   1.273       .  A
O30         Co50   1.911       .  S
O31          C39   1.274       .  A
O31         Co51   1.921       .  S
O32          C40   1.243       .  A
O32         Co52   1.954       .  S
O33          C41   1.271       .  A
O33         Co53   2.004       .  S
O34          C40   1.261       .  A
O34         Co51   2.043       .  S
O35          C41   1.279       .  A
O35         Co50   2.004       .  S
O36          C39   1.284       .  A
O36         Co53   2.035       .  S
O37          C38   1.297       .  A
O37         Co52   2.095       .  S
C38        C1046   1.478       .  S
C39         C996   1.465       .  S
C40         C986   1.496       .  S
C41        C1016   1.485       .  S
O42          C55   1.265       .  A
O42         Co50   1.965       .  S
O43          C56   1.291       .  A
O43         Co51   2.029       .  S
O44          C57   1.267       .  A
O44         Co52   1.994       .  S
O45          C58   1.275       .  A
O45         Co53   1.988       .  S
O46          C58   1.290       .  A
O46         Co51   2.069       .  S
O47          C57   1.267       .  A
O47         Co50   2.036       .  S
O48          C55   1.273       .  A
O48         Co53   1.989       .  S
O49          C56   1.277       .  A
O49         Co52   2.031       .  S
Co50         O54   1.938       .  S
Co51         O54   1.981       .  S
Co52         O54   2.103       .  S
Co53         O54   2.093       .  S
C55        C1026   1.467       .  S
C56         C976   1.501       .  S
C57        C1036   1.496       .  S
C58        C1006   1.485       .  S
O59          C67   1.282       .  A
O59         Co79   2.054       .  S
O60          C68   1.266       .  A
O60         Co80   2.060       .  S
O61          C69   1.254       .  A
O61         Co81   1.850       .  S
O62          C70   1.251       .  A
O62         Co82   1.954       .  S
O63          C69   1.306       .  A
O63         Co80   2.128       .  S
O64          C70   1.269       .  A
O64         Co79   2.043       .  S
O65          C68   1.251       .  A
O65         Co82   1.957       .  S
O66          C67   1.263       .  A
O66         Co81   1.971       .  S
C67         C956   1.499       .  S
C68         C916   1.518       .  S
C69         C906   1.483       .  S
C70         C946   1.481       .  S
O71          C84   1.254       .  A
O71         Co79   1.958       .  S
O72          C85   1.262       .  A
O72         Co80   1.872       .  S
O73          C86   1.255       .  A
O73         Co81   2.032       .  S
O74          C87   1.278       .  A
O74         Co82   2.038       .  S
O75          C87   1.272       .  A
O75         Co80   1.982       .  S
O76          C86   1.244       .  A
O76         Co79   1.952       .  S
O77          C84   1.275       .  A
O77         Co82   2.057       .  S
O78          C85   1.299       .  A
O78         Co81   2.103       .  S
Co79         O83   2.061       .  S
Co80         O83   2.053       .  S
Co81         O83   2.029       .  S
Co82         O83   2.041       .  S
C84         C936   1.496       .  S
C85         C896   1.469       .  S
C86         C966   1.488       .  S
C87         C926   1.490       .  S
C88         C886   1.482       .  S
C88          C89   1.411       .  A
C88          C93   1.407   1_545  A
C89         C859   1.476       .  S
C89          C90   1.413   1_554  A
C90         C869   1.507       .  S
C90          C91   1.416   1_545  A
C91         C836   1.478       .  S
C91          C92   1.421   1_556  A
C92         C846   1.483       .  S
C92          C93   1.411       .  A
C93         C876   1.487       .  S
C94         C909   1.493       .  S
C94          C95   1.400       .  A
C94          C99   1.414   1_565  A
C95          C96   1.395   1_565  A
C95         H100   1.081       .  S
C96         C889   1.489       .  S
C96          C97   1.402       .  A
C97          C98   1.409       .  A
C97         H101   1.084       .  S
C98         C829   1.492       .  S
C98          C99   1.416       .  A
C99         H102   1.082       .  S
C103        C816   1.490       .  S
C103        C104   1.412       .  A
C103        C108   1.411       .  A
C104        C105   1.397       .  A
C104        H109   1.082       .  S
C105        C856   1.470       .  S
C105        C106   1.389   1_554  A
C106        C107   1.391       .  A
C106        H110   1.083       .  S
C107        C999   1.464       .  S
C107        C108   1.402   1_556  A
C108        H111   1.078       .  S
C112        C806   1.475       .  S
C112        C113   1.409   1_545  A
C112        C117   1.389       .  A
C113        C114   1.421       .  A
C113        H118   1.083   1_565  S
C114       C1089   1.505       .  S
C114        C115   1.409       .  A
C115        C116   1.398       .  A
C115        H119   1.078       .  S
C116        C839   1.467       .  S
C116        C117   1.393   1_565  A
C117        H120   1.086       .  S
C121        C799   1.536       .  S
C121        C122   1.421       .  A
C121        C126   1.418       .  A
C122        C123   1.420       .  A
C122        H127   1.088       .  S
C123       C1019   1.523       .  S
C123        C124   1.410       .  A
C124        C125   1.413       .  A
C124        H128   1.062       .  S
C125        C866   1.525       .  S
C125        C126   1.414       .  A
C126        H129   1.072       .  S
C130        C789   1.475       .  S
C130        C131   1.407       .  A
C130        C135   1.388       .  A
C131        C132   1.423       .  A
C131        H136   1.074       .  S
C132        C959   1.531       .  S
C132        C133   1.424       .  A
C133        C134   1.414       .  A
C133        H137   1.078       .  S
C134        C879   1.494       .  S
C134        C135   1.395       .  A
C135        H138   1.082       .  S
C139        C776   1.510       .  S
C139        C140   1.420       .  A
C139        C144   1.404       .  A
C140        C141   1.419   1_554  A
C140        H145   1.078       .  S
C141       C1059   1.508       .  S
C141        C142   1.412       .  A
C142        C143   1.404   1_556  A
C142        H146   1.079       .  S
C143        C849   1.500       .  S
C143        C144   1.396       .  A
C144        H147   1.082       .  S
C148        C726   1.489       .  S
C148        C149   1.431       .  A
C148        C153   1.431   1_556  A
C149        C716   1.500       .  S
C149        C150   1.418       .  A
C150        C769   1.491       .  S
C150        C151   1.411   1_455  A
C151        C756   1.494       .  S
C151        C152   1.415   1_556  A
C152        C746   1.485       .  S
C152        C153   1.421   1_655  A
C153        C736   1.519       .  S
C154       C1069   1.493       .  S
C154        C155   1.409       .  A
C154        C159   1.413       .  A
C155        C156   1.394       .  A
C155        H160   1.082       .  S
C156        C729   1.484       .  S
C156        C157   1.397   1_556  A
C157        C158   1.407       .  A
C157        H161   1.082       .  S
C158        C706   1.488       .  S
C158        C159   1.410   1_554  A
C159        H162   1.084       .  S
C163       C1129   1.494       .  S
C163        C164   1.412       .  A
C163        C168   1.403       .  A
C164        C165   1.422       .  A
C164        H169   1.085       .  S
C165        C696   1.527       .  S
C165        C166   1.424       .  A
C166        C167   1.413       .  A
C166        H170   1.072       .  S
C167        C719   1.510       .  S
C167        C168   1.400       .  A
C168        H171   1.084       .  S
C172        C919   1.531       .  S
C172        C173   1.423       .  A
C172        C177   1.426       .  A
C173        C174   1.419       .  A
C173        H178   1.074       .  S
C174        C739   1.530       .  S
C174        C175   1.407   1_655  A
C175        C176   1.409       .  A
C175        H179   1.076       .  S
C176        C686   1.520       .  S
C176        C177   1.419   1_455  A
C177        H180   1.075       .  S
C181        C949   1.488       .  S
C181        C182   1.408       .  A
C181        C186   1.411       .  A
C182        C183   1.405       .  A
C182        H187   1.086       .  S
C183        C676   1.469       .  S
C183        C184   1.395       .  A
C184        C185   1.391       .  A
C184        H188   1.084       .  S
C185        C749   1.471       .  S
C185        C186   1.398       .  A
C186        H189   1.081       .  S
C190        C666   1.481       .  S
C190        C191   1.402       .  A
C190        C195   1.406       .  A
C191        C192   1.403       .  A
C191        H196   1.085       .  S
C192        C766   1.490       .  S
C192        C193   1.408   1_455  A
C193        C194   1.409       .  A
C193        H197   1.082       .  S
C194        C979   1.484       .  S
C194        C195   1.408   1_655  A
C195        H198   1.084       .  S
C199        C656   1.515       .  S
C199        C200   1.421   1_554  A
C199        C204   1.410       .  A
C200        C201   1.418       .  A
C200        H205   1.081       .  S
C201       C1009   1.516       .  S
C201        C202   1.405       .  A
C202        C203   1.405   1_556  A
C202        H206   1.079       .  S
C203        C759   1.498       .  S
C203        C204   1.407       .  A
C204        H207   1.080       .  S
C208        C596   1.464       .  S
C208        C209   1.407       .  A
C208        C213   1.410       .  A
C209        C606   1.503       .  S
C209        C210   1.412       .  A
C210        C646   1.464       .  S
C210        C211   1.418       .  A
C211        C639   1.501       .  S
C211        C212   1.415       .  A
C212        C626   1.472       .  S
C212        C213   1.410       .  A
C213        C616   1.497       .  S
C214       C1029   1.460       .  S
C214        C215   1.393       .  A
C214        C219   1.402       .  A
C215        C216   1.392       .  A
C215        H220   1.084       .  S
C216        C649   1.482       .  S
C216        C217   1.402       .  A
C217        C218   1.409       .  A
C217        H221   1.082       .  S
C218        C589   1.497       .  S
C218        C219   1.410       .  A
C219        H222   1.082       .  S
C223       C1099   1.469       .  S
C223        C224   1.391       .  A
C223        C228   1.409       .  A
C224        C225   1.388       .  A
C224        H229   1.085       .  S
C225        C599   1.471       .  S
C225        C226   1.400       .  A
C226        C227   1.404       .  A
C226        H230   1.085       .  S
C227        C576   1.482       .  S
C227        C228   1.413       .  A
C228        H231   1.084       .  S
C232        C939   1.513       .  S
C232        C233   1.419       .  A
C232        C237   1.413       .  A
C233        C234   1.412       .  A
C233        H238   1.080       .  S
C234        C566   1.487       .  S
C234        C235   1.394       .  A
C235        C236   1.397       .  A
C235        H239   1.086       .  S
C236        C629   1.487       .  S
C236        C237   1.405       .  A
C237        H240   1.080       .  S
C241        C556   1.514       .  S
C241        C242   1.419       .  A
C241        C246   1.416       .  A
C242        C243   1.415       .  A
C242        H247   1.082       .  S
C243        C619   1.498       .  S
C243        C244   1.401       .  A
C244        C245   1.399       .  A
C244        H248   1.080       .  S
C245        C969   1.490       .  S
C245        C246   1.403       .  A
C246        H249   1.084       .  S
C250       C1119   1.516       .  S
C250        C251   1.418       .  A
C250        C255   1.417       .  A
C251        C252   1.414       .  A
C251        H256   1.083       .  S
C252        C546   1.495       .  S
C252        C253   1.409       .  A
C253        C254   1.403       .  A
C253        H257   1.083       .  S
C254        C609   1.511       .  S
C254        C255   1.409       .  A
C255        H258   1.078       .  S
C259       C1039   1.508       .  S
C259        C260   1.414       .  A
C259        C264   1.412       .  A
C260        C261   1.412       .  A
C260        H265   1.081       .  S
C261        C636   1.503       .  S
C261        C262   1.407       .  A
C262        C263   1.406       .  A
C262        H266   1.083       .  S
C263        C536   1.486       .  S
C263        C264   1.409       .  A
C264        H267   1.083       .  S
C268        C486   1.480       .  S
C268        C269   1.416       .  A
C268        C273   1.415   1_565  A
C269        C479   1.492       .  S
C269        C270   1.414   1_655  A
C270        C526   1.473       .  S
C270        C271   1.408       .  A
C271        C516   1.489       .  S
C271        C272   1.407   1_465  A
C272        C509   1.475       .  S
C272        C273   1.408       .  A
C273        C499   1.487       .  S
C274        C469   1.477       .  S
C274        C275   1.415       .  A
C274        C279   1.401       .  A
C275        C276   1.411   1_455  A
C275        H280   1.082       .  S
C276        C989   1.489       .  S
C276        C277   1.400       .  A
C277        C278   1.396   1_655  A
C277        H281   1.086       .  S
C278        C506   1.476       .  S
C278        C279   1.397       .  A
C279        H282   1.084       .  S
C283        C456   1.502       .  S
C283        C284   1.418   1_545  A
C283        C288   1.411       .  A
C284        C285   1.404       .  A
C284        H289   1.081       .  S
C285       C1079   1.483       .  S
C285        C286   1.396       .  A
C286        C287   1.401       .  A
C286        H290   1.084       .  S
C287        C519   1.489       .  S
C287        C288   1.411   1_565  A
C288        H291   1.083       .  S
C292        C446   1.492       .  S
C292        C293   1.409       .  A
C292        C297   1.400       .  A
C293        C294   1.415       .  A
C293        H298   1.083       .  S
C294       C1106   1.505       .  S
C294        C295   1.405       .  A
C295        C296   1.402       .  A
C295        H299   1.074       .  S
C296        C529   1.485       .  S
C296        C297   1.404       .  A
C297        H300   1.083       .  S
C301       C1049   1.487       .  S
C301        C302   1.413       .  A
C301        C306   1.408       .  A
C302        C303   1.410       .  A
C302        H307   1.085       .  S
C303        C436   1.490       .  S
C303        C304   1.399       .  A
C304        C305   1.401       .  A
C304        H308   1.079       .  S
C305        C496   1.493       .  S
C305        C306   1.405       .  A
C306        H309   1.083       .  S
C310        C426   1.482       .  S
C310        C311   1.412   1_545  A
C310        C315   1.403       .  A
C311        C312   1.419       .  A
C311        H316   1.078       .  S
C312        C899   1.512       .  S
C312        C313   1.406       .  A
C313        C314   1.398   1_565  A
C313        H317   1.076       .  S
C314        C489   1.485       .  S
C314        C315   1.400       .  A
C315        H318   1.084       .  S
C319        C416   1.498       .  S
C319        C320   1.411   1_455  A
C319        C324   1.413       .  A
C320        C321   1.403       .  A
C320        H325   1.083       .  S
C321        C929   1.487       .  S
C321        C322   1.406       .  A
C322        C323   1.402       .  A
C322        H326   1.083       .  S
C323        C476   1.498       .  S
C323        C324   1.405   1_655  A
C324        H327   1.080       .  S
O328        C336   1.276       .  A
O328       Co348   2.016       .  S
O329        C337   1.281       .  A
O329       Co349   1.987       .  S
O330        C338   1.266       .  A
O330       Co350   1.986       .  S
O331        C339   1.277       .  A
O331       Co351   2.020       .  S
O332        C338   1.276       .  A
O332       Co349   2.005       .  S
O333        C339   1.280       .  A
O333       Co348   1.967       .  S
O334        C337   1.276       .  A
O334       Co351   2.015       .  S
O335        C336   1.265       .  A
O335       Co350   1.976       .  S
C336        C459   1.500       .  S
C337        C549   1.500       .  S
C338        C466   1.482       .  S
C339        C586   1.484       .  S
O340        C353   1.246       .  A
O340       Co348   1.982       .  S
O341        C354   1.273       .  A
O341       Co349   1.977       .  S
O342        C355   1.293       .  A
O342       Co350   2.028       .  S
O343        C356   1.259       .  A
O343       Co351   2.034       .  S
O344        C356   1.248       .  A
O344       Co349   1.972       .  S
O345        C355   1.271       .  A
O345       Co348   1.967       .  S
O346        C353   1.255       .  A
O346       Co351   2.024       .  S
O347        C354   1.290       .  A
O347       Co350   2.021       .  S
Co348       O352   2.008       .  S
Co349       O352   2.009       .  S
Co350       O352   2.084       .  S
Co351       O352   2.231       .  S
C353        C796   1.504       .  S
C354        C669   1.486       .  S
C355        C809   1.478       .  S
C356        C699   1.505       .  S
O357        C365   1.294       .  A
O357       Co377   2.041       .  S
O358        C366   1.266       .  A
O358       Co378   1.968       .  S
O359        C367   1.262       .  A
O359       Co379   1.984       .  S
O360        C368   1.270       .  A
O360       Co380   1.972       .  S
O361        C367   1.262       .  A
O361       Co378   2.033       .  S
O362        C368   1.287       .  A
O362       Co377   2.050       .  S
O363        C366   1.276       .  A
O363       Co380   2.000       .  S
O364        C365   1.274       .  A
O364       Co379   2.022       .  S
C365        C429   1.494       .  S
C366        C679   1.458       .  S
C367        C659   1.482       .  S
C368        C439   1.475       .  S
O369        C382   1.275       .  A
O369       Co377   1.909       .  S
O370        C383   1.276       .  A
O370       Co378   1.924       .  S
O371        C384   1.235       .  A
O371       Co379   1.945       .  S
O372        C385   1.267       .  A
O372       Co380   1.980       .  S
O373        C385   1.276       .  A
O373       Co378   1.996       .  S
O374        C384   1.261       .  A
O374       Co377   2.065       .  S
O375        C382   1.296       .  A
O375       Co380   2.085       .  S
O376        C383   1.290       .  A
O376       Co379   2.053       .  S
Co377       O381   1.971       .  S
Co378       O381   1.958       .  S
Co379       O381   2.085       .  S
Co380       O381   2.097       .  S
C382        C539   1.493       .  S
C383        C819   1.467       .  S
C384        C826   1.500       .  S
C385        C569   1.469       .  S
O386        C394   1.274       .  A
O386       Co406   2.009       .  S
O387        C395   1.278       .  A
O387       Co407   1.982       .  S
O388        C396   1.266       .  A
O388       Co408   1.982       .  S
O389        C397   1.285       .  A
O389       Co409   2.031       .  S
O390        C396   1.277       .  A
O390       Co407   2.006       .  S
O391        C397   1.278       .  A
O391       Co406   1.956       .  S
O392        C395   1.282       .  A
O392       Co409   2.017       .  S
O393        C394   1.269       .  A
O393       Co408   1.991       .  S
C394        C559   1.492       .  S
C395        C689   1.507       .  S
C396        C579   1.479       .  S
C397        C709   1.492       .  S
O398        C411   1.246       .  A
O398       Co406   1.972       .  S
O399        C412   1.272       .  A
O399       Co407   1.977       .  S
O400        C413   1.286       .  A
O400       Co408   2.018       .  S
O401        C414   1.253       .  A
O401       Co409   2.003       .  S
O402        C414   1.243       .  A
O402       Co407   1.950       .  S
O403        C413   1.269       .  A
O403       Co406   1.966       .  S
O404        C411   1.247       .  A
O404       Co409   2.001       .  S
O405        C412   1.286       .  A
O405       Co408   2.023       .  S
Co406       O410   1.979       .  S
Co407       O410   1.988       .  S
Co408       O410   2.087       .  S
Co409       O410   2.252       .  S
C411        C779   1.489       .  S
C412        C449   1.490       .  S
C413        C786   1.481       .  S
C414        C419   1.483       .  S
C415        C416   1.417       .  A
C415        C420   1.405       .  A
C415        F422   1.357       .  S
C416        C417   1.409       .  A
C417        C418   1.390       .  A
C417        F424   1.358       .  S
C418        C419   1.408       .  A
C418        F423   1.357       .  S
C419        C420   1.405       .  A
C420        F421   1.358       .  S
C425        C426   1.406       .  A
C425        C430   1.410       .  A
C425        F432   1.357       .  S
C426        C427   1.399       .  A
C427        C428   1.394       .  A
C427        F434   1.359       .  S
C428        C429   1.416       .  A
C428        F433   1.358       .  S
C429        C430   1.411       .  A
C430        F431   1.357       .  S
C435        C436   1.410       .  A
C435        C440   1.395       .  A
C435        F442   1.358       .  S
C436        C437   1.409       .  A
C437        C438   1.406       .  A
C437        F444   1.358       .  S
C438        C439   1.407       .  A
C438        F443   1.356       .  S
C439        C440   1.397       .  A
C440        F441   1.349       .  S
C445        C446   1.415       .  A
C445        C450   1.410       .  A
C445        F452   1.357       .  S
C446        C447   1.402       .  A
C447        C448   1.392       .  A
C447        F454   1.359       .  S
C448        C449   1.414       .  A
C448        F453   1.359       .  S
C449        C450   1.405       .  A
C450        F451   1.357       .  S
C455        C456   1.420       .  A
C455        C460   1.418       .  A
C455        F462   1.357       .  S
C456        C457   1.402       .  A
C457        C458   1.388       .  A
C457        F464   1.359       .  S
C458        C459   1.417       .  A
C458        F463   1.358       .  S
C459        C460   1.407       .  A
C460        F461   1.357       .  S
C465        C466   1.408       .  A
C465        C470   1.411       .  A
C465        F472   1.357       .  S
C466        C467   1.412       .  A
C467        C468   1.389       .  A
C467        F474   1.356       .  S
C468        C469   1.397       .  A
C468        F473   1.359       .  S
C469        C470   1.408       .  A
C470        F471   1.357       .  S
C475        C476   1.412       .  A
C475        C480   1.400       .  A
C475        F482   1.358       .  S
C476        C477   1.412   1_655  A
C477        C478   1.401       .  A
C477        F484   1.357       .  S
C478        C479   1.404   1_455  A
C478        F483   1.357       .  S
C479        C480   1.403       .  A
C480        F481   1.356       .  S
C485        C486   1.404   1_545  A
C485        C490   1.400       .  A
C485        F492   1.357       .  S
C486        C487   1.400       .  A
C487        C488   1.394       .  A
C487        F494   1.357       .  S
C488        C489   1.409   1_565  A
C488        F493   1.358       .  S
C489        C490   1.410       .  A
C490        F491   1.358       .  S
C495        C496   1.411       .  A
C495        C500   1.401       .  A
C495        F502   1.358       .  S
C496        C497   1.413       .  A
C497        C498   1.394       .  A
C497        F504   1.358       .  S
C498        C499   1.399       .  A
C498        F503   1.357       .  S
C499        C500   1.404       .  A
C500        F501   1.357       .  S
C505        C506   1.408       .  A
C505        C510   1.396       .  A
C505        F512   1.358       .  S
C506        C507   1.407   1_455  A
C507        C508   1.391       .  A
C507        F514   1.358       .  S
C508        C509   1.399       .  A
C508        F513   1.357       .  S
C509        C510   1.403   1_655  A
C510        F511   1.356       .  S
C515        C516   1.402       .  A
C515        C520   1.399       .  A
C515        F522   1.357       .  S
C516        C517   1.404   1_565  A
C517        C518   1.398       .  A
C517        F524   1.357       .  S
C518        C519   1.407   1_545  A
C518        F523   1.357       .  S
C519        C520   1.413       .  A
C520        F521   1.358       .  S
C525        C526   1.396       .  A
C525        C530   1.391       .  A
C525        F532   1.357       .  S
C526        C527   1.402       .  A
C527        C528   1.397       .  A
C527        F534   1.358   1_455  S
C528        C529   1.413       .  A
C528        F533   1.358       .  S
C529        C530   1.411       .  A
C530        F531   1.357       .  S
C535        C536   1.400       .  A
C535        C540   1.398       .  A
C535        F542   1.358       .  S
C536        C537   1.408       .  A
C537        C538   1.406       .  A
C537        F544   1.357       .  S
C538        C539   1.409       .  A
C538        F543   1.358       .  S
C539        C540   1.414       .  A
C540        F541   1.355       .  S
C545        C546   1.411       .  A
C545        C550   1.415       .  A
C545        F552   1.357       .  S
C546        C547   1.402       .  A
C547        C548   1.393       .  A
C547        F554   1.359       .  S
C548        C549   1.413       .  A
C548        F553   1.354       .  S
C549        C550   1.411       .  A
C550        F551   1.357       .  S
C555        C556   1.412       .  A
C555        C560   1.391       .  A
C555        F562   1.357       .  S
C556        C557   1.422       .  A
C557        C558   1.417       .  A
C557        F564   1.357       .  S
C558        C559   1.405       .  A
C558        F563   1.357       .  S
C559        C560   1.408       .  A
C560        F561   1.357       .  S
C565        C566   1.409       .  A
C565        C570   1.399       .  A
C565        F572   1.359       .  S
C566        C567   1.406       .  A
C567        C568   1.403       .  A
C567        F574   1.358       .  S
C568        C569   1.407       .  A
C568        F573   1.358       .  S
C569        C570   1.405       .  A
C570        F571   1.357       .  S
C575        C576   1.400       .  A
C575        C580   1.390       .  A
C575        F582   1.359       .  S
C576        C577   1.409       .  A
C577        C578   1.410       .  A
C577        F584   1.357       .  S
C578        C579   1.408       .  A
C578        F583   1.357       .  S
C579        C580   1.410       .  A
C580        F581   1.353       .  S
C585        C586   1.407       .  A
C585        C590   1.389       .  A
C585        F592   1.358       .  S
C586        C587   1.405       .  A
C587        C588   1.406       .  A
C587        F594   1.357       .  S
C588        C589   1.416       .  A
C588        F593   1.357       .  S
C589        C590   1.410       .  A
C590        F591   1.358       .  S
C595        C596   1.397       .  A
C595        C600   1.390       .  A
C595        F602   1.358       .  S
C596        C597   1.400       .  A
C597        C598   1.389       .  A
C597        F604   1.357       .  S
C598        C599   1.404       .  A
C598        F603   1.357       .  S
C599        C600   1.412       .  A
C600        F601   1.358       .  S
C605        C606   1.405       .  A
C605        C610   1.406       .  A
C605        F612   1.357       .  S
C606        C607   1.403       .  A
C607        C608   1.404       .  A
C607        F614   1.357       .  S
C608        C609   1.414       .  A
C608        F613   1.357       .  S
C609        C610   1.417       .  A
C610        F611   1.357       .  S
C615        C616   1.403       .  A
C615        C620   1.403       .  A
C615        F622   1.358       .  S
C616        C617   1.404       .  A
C617        C618   1.401       .  A
C617        F624   1.356       .  S
C618        C619   1.409       .  A
C618        F623   1.357       .  S
C619        C620   1.415       .  A
C620        F621   1.358       .  S
C625        C626   1.400       .  A
C625        C630   1.394       .  A
C625        F632   1.358       .  S
C626        C627   1.399       .  A
C627        C628   1.395       .  A
C627        F634   1.357       .  S
C628        C629   1.412       .  A
C628        F633   1.357       .  S
C629        C630   1.412       .  A
C630        F631   1.358       .  S
C635        C636   1.411       .  A
C635        C640   1.404       .  A
C635        F642   1.357       .  S
C636        C637   1.413       .  A
C637        C638   1.405       .  A
C637        F644   1.358       .  S
C638        C639   1.406       .  A
C638        F643   1.356       .  S
C639        C640   1.405       .  A
C640        F641   1.357       .  S
C645        C646   1.397       .  A
C645        C650   1.393       .  A
C645        F652   1.358       .  S
C646        C647   1.398       .  A
C647        C648   1.389       .  A
C647        F654   1.358       .  S
C648        C649   1.410       .  A
C648        F653   1.357       .  S
C649        C650   1.414       .  A
C650        F651   1.358       .  S
C655        C656   1.411       .  A
C655        C660   1.399       .  A
C655        F662   1.357       .  S
C656        C657   1.423       .  A
C657        C658   1.412       .  A
C657        F664   1.357       .  S
C658        C659   1.402       .  A
C658        F663   1.357       .  S
C659        C660   1.405       .  A
C660        F661   1.357       .  S
C665        C666   1.409       .  A
C665        C670   1.412       .  A
C665        F672   1.357       .  S
C666        C667   1.398       .  A
C667        C668   1.389       .  A
C667        F674   1.359       .  S
C668        C669   1.414       .  A
C668        F673   1.359       .  S
C669        C670   1.409       .  A
C670        F671   1.357       .  S
C675        C676   1.403       .  A
C675        C680   1.389       .  A
C675        F682   1.359       .  S
C676        C677   1.404       .  A
C677        C678   1.401       .  A
C677        F684   1.358       .  S
C678        C679   1.405       .  A
C678        F683   1.358       .  S
C679        C680   1.404       .  A
C680        F681   1.357       .  S
C685        C686   1.417       .  A
C685        C690   1.422       .  A
C685        F692   1.357       .  S
C686        C687   1.415       .  A
C687        C688   1.394       .  A
C687        F694   1.357       .  S
C688        C689   1.405       .  A
C688        F693   1.356       .  S
C689        C690   1.415       .  A
C690        F691   1.357       .  S
C695        C696   1.423       .  A
C695        C700   1.418       .  A
C695        F702   1.357       .  S
C696        C697   1.417       .  A
C697        C698   1.401       .  A
C697        F704   1.356       .  S
C698        C699   1.406       .  A
C698        F703   1.356       .  S
C699        C700   1.408       .  A
C700        F701   1.356       .  S
C705        C706   1.403       .  A
C705        C710   1.389       .  A
C705        F712   1.359       .  S
C706        C707   1.409       .  A
C707        C708   1.410       .  A
C707        F714   1.357       .  S
C708        C709   1.412       .  A
C708        F713   1.357       .  S
C709        C710   1.409       .  A
C710        F711   1.354       .  S
C715        C716   1.406       .  A
C715        C720   1.406       .  A
C715        F722   1.357       .  S
C716        C717   1.403       .  A
C717        C718   1.405       .  A
C717        F724   1.358       .  S
C718        C719   1.417       .  A
C718        F723   1.358       .  S
C719        C720   1.413       .  A
C720        F721   1.357       .  S
C725        C726   1.405       .  A
C725        C730   1.399       .  A
C725        F732   1.358       .  S
C726        C727   1.406   1_556  A
C727        C728   1.396       .  A
C727        F734   1.355       .  S
C728        C729   1.406   1_554  A
C728        F733   1.358       .  S
C729        C730   1.408       .  A
C730        F731   1.358       .  S
C735        C736   1.405       .  A
C735        C740   1.404       .  A
C735        F742   1.356       .  S
C736        C737   1.408   1_455  A
C737        C738   1.406       .  A
C737        F744   1.355       .  S
C738        C739   1.418       .  A
C738        F743   1.355       .  S
C739        C740   1.424   1_655  A
C740        F741   1.355       .  S
C745        C746   1.401       .  A
C745        C750   1.396       .  A
C745        F752   1.357       .  S
C746        C747   1.408       .  A
C747        C748   1.394       .  A
C747        F754   1.356   1_554  S
C748        C749   1.401       .  A
C748        F753   1.358       .  S
C749        C750   1.407       .  A
C750        F751   1.358       .  S
C755        C756   1.403   1_554  A
C755        C760   1.401       .  A
C755        F762   1.357       .  S
C756        C757   1.402       .  A
C757        C758   1.398       .  A
C757        F764   1.356       .  S
C758        C759   1.412   1_556  A
C758        F763   1.357       .  S
C759        C760   1.414       .  A
C760        F761   1.358       .  S
C765        C766   1.408       .  A
C765        C770   1.398       .  A
C765        F772   1.358       .  S
C766        C767   1.410   1_455  A
C767        C768   1.404       .  A
C767        F774   1.358       .  S
C768        C769   1.406   1_655  A
C768        F773   1.357       .  S
C769        C770   1.403       .  A
C770        F771   1.357       .  S
C775        C776   1.419       .  A
C775        C780   1.389       .  A
C775        F782   1.358       .  S
C776        C777   1.416       .  A
C777        C778   1.412       .  A
C777        F784   1.357       .  S
C778        C779   1.410       .  A
C778        F783   1.356       .  S
C779        C780   1.399       .  A
C780        F781   1.357       .  S
C785        C786   1.415       .  A
C785        C790   1.388       .  A
C785        F792   1.358       .  S
C786        C787   1.407       .  A
C787        C788   1.409       .  A
C787        F794   1.357       .  S
C788        C789   1.408       .  A
C788        F793   1.357       .  S
C789        C790   1.396       .  A
C790        F791   1.359       .  S
C795        C796   1.408       .  A
C795        C800   1.418       .  A
C795        F802   1.356       .  S
C796        C797   1.403       .  A
C797        C798   1.403       .  A
C797        F804   1.358       .  S
C798        C799   1.422       .  A
C798        F803   1.356       .  S
C799        C800   1.425       .  A
C800        F801   1.355       .  S
C805        C806   1.407       .  A
C805        C810   1.408       .  A
C805        F812   1.357       .  S
C806        C807   1.397       .  A
C807        C808   1.392       .  A
C807        F814   1.359       .  S
C808        C809   1.414       .  A
C808        F813   1.356       .  S
C809        C810   1.406       .  A
C810        F811   1.357       .  S
C815        C816   1.408       .  A
C815        C820   1.384       .  A
C815        F822   1.359       .  S
C816        C817   1.417       .  A
C817        C818   1.406       .  A
C817        F824   1.357       .  S
C818        C819   1.402       .  A
C818        F823   1.357       .  S
C819        C820   1.404       .  A
C820        F821   1.360       .  S
C825        C826   1.409       .  A
C825        C830   1.414       .  A
C825        F832   1.356       .  S
C826        C827   1.417       .  A
C827        C828   1.394       .  A
C827        F834   1.358       .  S
C828        C829   1.401       .  A
C828        F833   1.359       .  S
C829        C830   1.411       .  A
C830        F831   1.357       .  S
C835        C836   1.403       .  A
C835        C840   1.394       .  A
C835        F842   1.358       .  S
C836        C837   1.405       .  A
C837        C838   1.391       .  A
C837        F844   1.356   1_565  S
C838        C839   1.403       .  A
C838        F843   1.358       .  S
C839        C840   1.405       .  A
C840        F841   1.358       .  S
C845        C846   1.400       .  A
C845        C850   1.398       .  A
C845        F852   1.358       .  S
C846        C847   1.400   1_554  A
C847        C848   1.398       .  A
C847        F854   1.357       .  S
C848        C849   1.414   1_556  A
C848        F853   1.357       .  S
C849        C850   1.417       .  A
C850        F851   1.358       .  S
C855        C856   1.407       .  A
C855        C860   1.386       .  A
C855        F862   1.359   1_554  S
C856        C857   1.404       .  A
C857        C858   1.395       .  A
C857        F864   1.357       .  S
C858        C859   1.403       .  A
C858        F863   1.358       .  S
C859        C860   1.402       .  A
C860        F861   1.356   1_554  S
C865        C866   1.420       .  A
C865        C870   1.399       .  A
C865        F872   1.355       .  S
C866        C867   1.423       .  A
C867        C868   1.406       .  A
C867        F874   1.354       .  S
C868        C869   1.403       .  A
C868        F873   1.356       .  S
C869        C870   1.403       .  A
C870        F871   1.356       .  S
C875        C876   1.402       .  A
C875        C880   1.401       .  A
C875        F882   1.358       .  S
C876        C877   1.403       .  A
C877        C878   1.399       .  A
C877        F884   1.357       .  S
C878        C879   1.410       .  A
C878        F883   1.357       .  S
C879        C880   1.414       .  A
C880        F881   1.358       .  S
C885        C886   1.400   1_565  A
C885        C890   1.392       .  A
C885        F892   1.358       .  S
C886        C887   1.400       .  A
C887        C888   1.398       .  A
C887        F894   1.357       .  S
C888        C889   1.412       .  A
C888        F893   1.357       .  S
C889        C890   1.412   1_545  A
C890        F891   1.358       .  S
C895        C896   1.393       .  A
C895        C900   1.391       .  A
C895        F902   1.357       .  S
C896        C897   1.406       .  A
C897        C898   1.408       .  A
C897        F904   1.358       .  S
C898        C899   1.418       .  A
C898        F903   1.356       .  S
C899        C900   1.422       .  A
C900        F901   1.357       .  S
C905        C906   1.408       .  A
C905        C910   1.388       .  A
C905        F912   1.359       .  S
C906        C907   1.410       .  A
C907        C908   1.413       .  A
C907        F914   1.357       .  S
C908        C909   1.411       .  A
C908        F913   1.357       .  S
C909        C910   1.408       .  A
C910        F911   1.360       .  S
C915        C916   1.411       .  A
C915        C920   1.404       .  A
C915        F922   1.357       .  S
C916        C917   1.413       .  A
C917        C918   1.420       .  A
C917        F924   1.357       .  S
C918        C919   1.421       .  A
C918        F923   1.356       .  S
C919        C920   1.418       .  A
C920        F921   1.357       .  S
C925        C926   1.405       .  A
C925        C930   1.383       .  A
C925        F932   1.345       .  S
C926        C927   1.410       .  A
C927        C928   1.415       .  A
C927        F934   1.357       .  S
C928        C929   1.413       .  A
C928        F933   1.357       .  S
C929        C930   1.399       .  A
C930        F931   1.359       .  S
C935        C936   1.408       .  A
C935        C940   1.402       .  A
C935        F942   1.359       .  S
C936        C937   1.407       .  A
C937        C938   1.405       .  A
C937        F944   1.353       .  S
C938        C939   1.414       .  A
C938        F943   1.356       .  S
C939        C940   1.418       .  A
C940        F941   1.358       .  S
C945        C946   1.409       .  A
C945        C950   1.385       .  A
C945        F952   1.355       .  S
C946        C947   1.406       .  A
C947        C948   1.409       .  A
C947        F954   1.357       .  S
C948        C949   1.414       .  A
C948        F953   1.357       .  S
C949        C950   1.404       .  A
C950        F951   1.359       .  S
C955        C956   1.404       .  A
C955        C960   1.404       .  A
C955        F962   1.356       .  S
C956        C957   1.408       .  A
C957        C958   1.408       .  A
C957        F964   1.358       .  S
C958        C959   1.423       .  A
C958        F963   1.356       .  S
C959        C960   1.422       .  A
C960        F961   1.354       .  S
C965        C966   1.409       .  A
C965        C970   1.407       .  A
C965        F972   1.358       .  S
C966        C967   1.413       .  A
C967        C968   1.394       .  A
C967        F974   1.358       .  S
C968        C969   1.404       .  A
C968        F973   1.359       .  S
C969        C970   1.411       .  A
C970        F971   1.358       .  S
C975        C976   1.420       .  A
C975        C980   1.400       .  A
C975        F982   1.358       .  S
C976        C977   1.411       .  A
C977        C978   1.406       .  A
C977        F984   1.357       .  S
C978        C979   1.405       .  A
C978        F983   1.357       .  S
C979        C980   1.399       .  A
C980        F981   1.358       .  S
C985        C986   1.412       .  A
C985        C990   1.414       .  A
C985        F992   1.357       .  S
C986        C987   1.414       .  A
C987        C988   1.388       .  A
C987        F994   1.358       .  S
C988        C989   1.402       .  A
C988        F993   1.359       .  S
C989        C990   1.410       .  A
C990        F991   1.357       .  S
C995        C996   1.405       .  A
C995       C1000   1.403       .  A
C995       F1002   1.357       .  S
C996        C997   1.409       .  A
C997        C998   1.380       .  A
C997       F1004   1.358       .  S
C998        C999   1.400       .  A
C998       F1003   1.360       .  S
C999       C1000   1.405       .  A
C1000      F1001   1.357       .  S
C1005      C1006   1.399       .  A
C1005      C1010   1.406       .  A
C1005      F1012   1.356       .  S
C1006      C1007   1.408       .  A
C1007      C1008   1.406       .  A
C1007      F1014   1.358       .  S
C1008      C1009   1.414       .  A
C1008      F1013   1.358       .  S
C1009      C1010   1.421       .  A
C1010      F1011   1.357       .  S
C1015      C1016   1.399       .  A
C1015      C1020   1.406       .  A
C1015      F1022   1.358       .  S
C1016      C1017   1.409       .  A
C1017      C1018   1.410       .  A
C1017      F1024   1.358       .  S
C1018      C1019   1.415       .  A
C1018      F1023   1.356       .  S
C1019      C1020   1.423       .  A
C1020      F1021   1.356       .  S
C1025      C1026   1.408       .  A
C1025      C1030   1.381       .  A
C1025      F1032   1.359       .  S
C1026      C1027   1.407       .  A
C1027      C1028   1.404       .  A
C1027      F1034   1.357       .  S
C1028      C1029   1.404       .  A
C1028      F1033   1.357       .  S
C1029      C1030   1.397       .  A
C1030      F1031   1.359       .  S
C1035      C1036   1.405       .  A
C1035      C1040   1.399       .  A
C1035      F1042   1.352       .  S
C1036      C1037   1.409       .  A
C1037      C1038   1.415       .  A
C1037      F1044   1.358       .  S
C1038      C1039   1.416       .  A
C1038      F1043   1.358       .  S
C1039      C1040   1.409       .  A
C1040      F1041   1.358       .  S
C1045      C1046   1.404       .  A
C1045      C1050   1.394       .  A
C1045      F1052   1.351       .  S
C1046      C1047   1.404       .  A
C1047      C1048   1.407       .  A
C1047      F1054   1.358       .  S
C1048      C1049   1.413       .  A
C1048      F1053   1.357       .  S
C1049      C1050   1.402       .  A
C1050      F1051   1.358       .  S
C1055      C1056   1.413       .  A
C1055      C1060   1.413       .  A
C1055      F1062   1.358       .  S
C1056      C1057   1.411       .  A
C1057      C1058   1.394       .  A
C1057      F1064   1.358       .  S
C1058      C1059   1.411       .  A
C1058      F1063   1.358       .  S
C1059      C1060   1.414       .  A
C1060      F1061   1.357       .  S
C1065      C1066   1.408       .  A
C1065      C1070   1.385       .  A
C1065      F1072   1.356       .  S
C1066      C1067   1.410       .  A
C1067      C1068   1.410       .  A
C1067      F1074   1.357       .  S
C1068      C1069   1.413       .  A
C1068      F1073   1.357       .  S
C1069      C1070   1.407       .  A
C1070      F1071   1.359       .  S
C1075      C1076   1.408       .  A
C1075      C1080   1.412       .  A
C1075      F1082   1.357       .  S
C1076      C1077   1.414       .  A
C1077      C1078   1.391       .  A
C1077      F1084   1.358       .  S
C1078      C1079   1.398       .  A
C1078      F1083   1.358       .  S
C1079      C1080   1.410       .  A
C1080      F1081   1.357       .  S
C1085      C1086   1.409       .  A
C1085      C1090   1.392       .  A
C1085      F1092   1.356       .  S
C1086      C1087   1.399       .  A
C1087      C1088   1.409       .  A
C1087      F1094   1.357       .  S
C1088      C1089   1.423       .  A
C1088      F1093   1.357       .  S
C1089      C1090   1.407       .  A
C1090      F1091   1.357       .  S
C1095      C1096   1.406       .  A
C1095      C1100   1.407       .  A
C1095      F1102   1.357       .  S
C1096      C1097   1.412       .  A
C1097      C1098   1.386       .  A
C1097      F1104   1.359       .  S
C1098      C1099   1.399       .  A
C1098      F1103   1.359       .  S
C1099      C1100   1.407       .  A
C1100      F1101   1.357       .  S
C1105      C1106   1.414       .  A
C1105      C1110   1.396       .  A
C1105      F1112   1.357       .  S
C1106      C1107   1.422       .  A
C1107      C1108   1.400       .  A
C1107      F1114   1.356       .  S
C1108      C1109   1.396       .  A
C1108      F1113   1.356       .  S
C1109      C1110   1.402       .  A
C1110      F1111   1.358       .  S
C1115      C1116   1.410       .  A
C1115      C1120   1.419       .  A
C1115      F1122   1.357       .  S
C1116      C1117   1.407       .  A
C1117      C1118   1.394       .  A
C1117      F1124   1.357       .  S
C1118      C1119   1.412       .  A
C1118      F1123   1.358       .  S
C1119      C1120   1.420       .  A
C1120      F1121   1.357       .  S
C1125      C1126   1.410       .  A
C1125      C1130   1.394       .  A
C1125      F1132   1.353       .  S
C1126      C1127   1.412       .  A
C1127      C1128   1.413       .  A
C1127      F1134   1.357       .  S
C1128      C1129   1.410       .  A
C1128      F1133   1.357       .  S
C1129      C1130   1.403       .  A
C1130      F1131   1.358       .  S
