geometry optimzed in LAMMPS
_audit_creation_date              2020-11-30 
_audit_creation_method            'lammps2cif' 
_symmetry_space_group_name_H-M    'P1' 
_symmetry_Int_Tables_number       1 
_symmetry_cell_setting            triclinic 
loop_ 
_symmetry_equiv_pos_as_xyz 
  x,y,z 
_cell_length_a                    52.04125941 
_cell_length_b                    51.51082160214687 
_cell_length_c                    25.810188066156584 
_cell_angle_alpha                 89.58851047226246 
_cell_angle_beta                  88.5465076237305 
_cell_angle_gamma                 120.96787533422831 
loop_ 
_atom_site_label 
_atom_site_type_symbol 
_atom_site_fract_x 
_atom_site_fract_y 
_atom_site_fract_z 
_atom_site_charge 
O1          O  0.86455405  0.19595966  0.22299978    -0.73000
O2          O  0.80880295  0.13859678  0.11869030    -0.74000
O3          O  0.81000140  0.13985525  0.22831582    -0.62600
O4          O  0.86369319  0.19430809  0.11314491    -0.71000
O5          O  0.88880556  0.17008882  0.11177402    -0.70600
O6          O  0.83482536  0.11534805  0.22876916    -0.61800
O7          O  0.83395432  0.11447825  0.11591806    -0.74300
O8          O  0.88922077  0.17135453  0.22458109    -0.73100
Cu9        Cu  0.83596737  0.16797803  0.17080320     1.04600
Cu10       Cu  0.86264583  0.14191895  0.17024926     1.04300
C11         C  0.88478059  0.19204174  0.24179335     0.93200
C12         C  0.81314004  0.11837357  0.09940747     0.92300
C13         C  0.81451036  0.11975518  0.24774967     0.84500
C14         C  0.88391405  0.19012323  0.09313503     0.90700
C15         C  0.61466555  0.81684317  0.98919177     0.80100
N16         N  0.61749714  0.80682401  0.27750984    -0.78200
C17         C  0.63079457  0.79002438  0.27646094     0.82600
N18         N  0.64193906  0.78372483  0.98772653    -0.78100
C19         C  0.63574993  0.79231331  0.03365809     0.82700
N20         N  0.62194345  0.80859528  0.03403169    -0.79800
C21         C  0.37760419  0.80825239  0.98592195     0.80100
N22         N  0.36125283  0.79927116  0.03137642    -0.78200
C23         C  0.33106437  0.78081746  0.03200396     0.82600
N24         N  0.31696536  0.77098849  0.98687203    -0.78100
C25         C  0.33193332  0.78082244  0.27449616     0.82700
N26         N  0.36233176  0.79901704  0.27368441    -0.79800
C27         C  0.52298173  0.09210716  0.99885440     0.80100
N28         N  0.51993694  0.10421520  0.04368323    -0.78200
C29         C  0.51033540  0.12420630  0.04309547     0.82600
N30         N  0.50477559  0.13306609  0.99748577    -0.78100
C31         C  0.51035594  0.12374248  0.28389048     0.82700
N32         N  0.52059276  0.10417326  0.28324386    -0.79800
C33         C  0.74994574  0.07898858  0.01113878     0.80100
N34         N  0.76562876  0.08722941  0.05558406    -0.78200
C35         C  0.79616479  0.10243005  0.05374321     0.82600
N36         N  0.81102009  0.11004728  0.00699449    -0.78100
C37         C  0.79780863  0.10396034  0.29529665     0.82700
N38         N  0.76744480  0.08905604  0.29657175    -0.79800
C39         C  0.50779354  0.88574690  0.97935578    -0.10900
C40         C  0.52352853  0.87038395  0.97739945    -0.04800
C41         C  0.55465456  0.88568781  0.98186604    -0.10900
C42         C  0.57070042  0.91727377  0.98954753     0.10000
C43         C  0.55534447  0.93340259  0.98973829    -0.02700
C44         C  0.52374812  0.91760221  0.98504511     0.09800
C45         C  0.50897751  0.93401896  0.98705085    -0.12700
C46         C  0.52505404  0.96548735  0.99067537    -0.12700
C47         C  0.55642446  0.98166102  0.99455434     0.09800
C48         C  0.57162410  0.96537316  0.99530444    -0.02700
C49         C  0.60164022  0.93302771  0.99805481    -0.12800
C50         C  0.61746476  0.96421187  0.00417047    -0.12800
C51         C  0.60312409  0.98098798  0.00111524     0.10000
C52         C  0.61953575  0.01301410  0.00346709    -0.10900
C53         C  0.60418769  0.02874145  0.00288918    -0.04800
C54         C  0.57305364  0.01367622  0.99768687    -0.10900
H55         H  0.48484872  0.92269985  0.98518866     0.07300
H56         H  0.51257693  0.97702581  0.99054427     0.07300
H57         H  0.61396556  0.92137707  0.99983804     0.07500
H58         H  0.64121331  0.97509200  0.01091456     0.07500
H59         H  0.51125334  0.84599256  0.97331521     0.03900
H60         H  0.61678505  0.05322273  0.00527883     0.03900
O61         O  0.25998651  0.42167769  0.12309373    -0.73000
O62         O  0.31524709  0.42320129  0.22960967    -0.74000
O63         O  0.31474543  0.42289883  0.11979516    -0.62600
O64         O  0.26065041  0.42152861  0.23302462    -0.71000
O65         O  0.23594964  0.37113781  0.23600745    -0.70600
O66         O  0.28998112  0.37251337  0.12226117    -0.61800
O67         O  0.29041144  0.37284702  0.23320809    -0.74300
O68         O  0.23564128  0.37135316  0.12451512    -0.73100
Cu69       Cu  0.28850778  0.42408042  0.17628838     1.04600
Cu70       Cu  0.26209240  0.37016562  0.17903369     1.04300
C71         C  0.23990484  0.39632766  0.10563796     0.93200
C72         C  0.31079250  0.39842517  0.24952405     0.92300
C73         C  0.31020348  0.39783343  0.10228696     0.84500
C74         C  0.24073595  0.39624245  0.25363583     0.90700
O75         O  0.26190710  0.69103329  0.21399109    -0.73000
O76         O  0.31740925  0.74435699  0.09881639    -0.74000
O77         O  0.31860648  0.74486138  0.20887449    -0.62600
O78         O  0.26080049  0.69026195  0.10409167    -0.71000
O79         O  0.23864304  0.71737849  0.10414480    -0.70600
O80         O  0.29621948  0.77175890  0.21092880    -0.61800
O81         O  0.29506463  0.77131659  0.09906591    -0.74300
O82         O  0.23986431  0.71828553  0.21576846    -0.73100
Cu83       Cu  0.29044443  0.71672130  0.15635352     1.04600
Cu84       Cu  0.26665505  0.74566855  0.15749330     1.04300
C85         C  0.24287592  0.69694233  0.23405314     0.93200
C86         C  0.31439322  0.76555612  0.07985285     0.92300
C87         C  0.31573383  0.76607351  0.22786409     0.84500
C88         C  0.24131501  0.69572250  0.08650726     0.90700
C89         C  0.19632655  0.41222065  0.34635270     0.80100
N90         N  0.20591835  0.40605735  0.30119670    -0.78200
C91         C  0.22577455  0.39660306  0.30138774     0.82600
N92         N  0.23665363  0.39375083  0.34669029    -0.78100
C93         C  0.22473915  0.39618659  0.05870928     0.82700
N94         N  0.20533911  0.40641811  0.05816098    -0.79800
C95         C  0.19398002  0.63589364  0.32868287     0.80100
N96         N  0.20625004  0.65114253  0.28294343    -0.78200
C97         C  0.22683590  0.68119358  0.28198029     0.82600
N98         N  0.23634082  0.69593582  0.32698257    -0.78100
C99         C  0.22525580  0.67977256  0.04052414     0.82700
N100        N  0.20375551  0.64983267  0.04244973    -0.79800
C101        C  0.92364606  0.25503136  0.33340063     0.80100
N102        N  0.91510367  0.23976698  0.28795095    -0.78200
C103        C  0.89988964  0.20888886  0.28814070     0.82600
N104        N  0.89212002  0.19330743  0.33403852    -0.78100
C105        C  0.89909397  0.20658211  0.04507361     0.82700
N106        N  0.91535874  0.23722868  0.04425798    -0.79800
C107        C  0.90758966  0.47945067  0.34778651     0.80100
N108        N  0.89628644  0.48371312  0.30357987    -0.78200
C109        C  0.87621176  0.49300637  0.30588805     0.82600
N110        N  0.86688507  0.49758099  0.35240184    -0.78100
C111        C  0.87488315  0.49126880  0.06484349     0.82700
N112        N  0.89433638  0.48107645  0.06370343    -0.79800
C113        C  0.11766795  0.45974265  0.33275666    -0.10900
C114        C  0.13146464  0.49113753  0.33429840    -0.04800
C115        C  0.11478585  0.50536137  0.33462511    -0.10900
C116        C  0.08317724  0.48758683  0.33097590     0.10000
C117        C  0.06886607  0.45550050  0.32996914    -0.02700
C118        C  0.08619800  0.44153314  0.33146218     0.09800
C119        C  0.07170862  0.40975118  0.33159340    -0.12700
C120        C  0.04065533  0.39194141  0.33086140    -0.12700
C121        C  0.02295763  0.40520754  0.32815978     0.09800
C122        C  0.03716435  0.43729856  0.32801855    -0.02700
C123        C  0.06549528  0.50088826  0.32863574    -0.12800
C124        C  0.03440965  0.48305213  0.32581225    -0.12800
C125        C  0.01972943  0.45120350  0.32674578     0.07000
C126        C  0.98804806  0.43283187  0.32724824    -0.10900
C127        C  0.97445828  0.40125642  0.32857052    -0.04800
C128        C  0.99135793  0.38720476  0.32674043    -0.10900
H129        H  0.08423396  0.39829315  0.33251823     0.07300
H130        H  0.03062045  0.36757803  0.33195053     0.07300
H131        H  0.07552224  0.52521317  0.32911903     0.07500
H132        H  0.02195875  0.49455283  0.32342087     0.07500
H133        H  0.15572471  0.50477647  0.33548030     0.03900
H134        H  0.95021283  0.38727505  0.33150271     0.03900
O135        O  0.48373392  0.18866730  0.21939365    -0.73000
O136        O  0.48480674  0.13461923  0.10906794    -0.74000
O137        O  0.48480914  0.13451729  0.22037919    -0.62600
O138        O  0.48392384  0.18863382  0.10801179    -0.71000
O139        O  0.53375109  0.21543785  0.10579421    -0.70600
O140        O  0.53462870  0.16080268  0.21689839    -0.61800
O141        O  0.53465026  0.16101839  0.10662554    -0.74300
O142        O  0.53355486  0.21541486  0.21645238    -0.73100
Cu143      Cu  0.48257680  0.16070281  0.16433757     1.04600
Cu144      Cu  0.53588370  0.18912642  0.16137120     1.04300
C145        C  0.50845773  0.20993236  0.23627742     0.93200
C146        C  0.50988536  0.13990180  0.08959779     0.92300
C147        C  0.50987477  0.13957354  0.23694019     0.84500
C148        C  0.50874651  0.20985411  0.08816192     0.90700
O149        O  0.83925500  0.46700069  0.13347230    -0.73000
O150        O  0.78552350  0.46798566  0.24645285    -0.74000
O151        O  0.78514616  0.46743022  0.13607376    -0.62600
O152        O  0.83965706  0.46789423  0.24349462    -0.71000
O153        O  0.86531549  0.51825476  0.24110612    -0.70600
O154        O  0.81118070  0.51778330  0.13291994    -0.61800
O155        O  0.81149708  0.51834438  0.24395386    -0.74300
O156        O  0.86486252  0.51733870  0.12982302    -0.73100
Cu157      Cu  0.81146741  0.46581669  0.18997542     1.04600
Cu158      Cu  0.83910858  0.51970068  0.18684377     1.04300
C159        C  0.85984823  0.49196221  0.11284429     0.93200
C160        C  0.79082512  0.49327832  0.26419375     0.92300
C161        C  0.79032703  0.49256254  0.11641439     0.84500
C162        C  0.86040425  0.49313027  0.26023662     0.90700
O163        O  0.65805099  0.77779635  0.09882593    -0.73000
O164        O  0.64835794  0.71943878  0.21369395    -0.74000
O165        O  0.65151597  0.72021902  0.10169669    -0.62600
O166        O  0.65521285  0.77701611  0.21165075    -0.71000
O167        O  0.60570381  0.75575283  0.21011041    -0.70600
O168        O  0.60196833  0.69899089  0.10153062    -0.61800
O169        O  0.59882107  0.69786894  0.21164569    -0.74300
O170        O  0.60850979  0.75666130  0.10026338    -0.73100
Cu171      Cu  0.65510109  0.74939991  0.15650192     1.04600
Cu172      Cu  0.60210246  0.72660862  0.15581083     1.04300
C173        C  0.63438413  0.77556303  0.08064211     0.93200
C174        C  0.62206222  0.70021387  0.23161326     0.92300
C175        C  0.62614733  0.70141516  0.08326085     0.84500
C176        C  0.63082792  0.77439771  0.22944409     0.90700
C177        C  0.37126180  0.41233533  0.33779571     0.80100
N178        N  0.35572764  0.40720572  0.29352555    -0.78200
C179        C  0.32665377  0.39974063  0.29596598     0.82600
N180        N  0.31324214  0.39807927  0.34238750    -0.78100
C181        C  0.32587217  0.39813447  0.05492936     0.82700
N182        N  0.35532189  0.40716723  0.05422536    -0.79800
C183        C  0.60548693  0.63887128  0.99280366     0.80100
N184        N  0.61186308  0.65454720  0.03768799    -0.78200
C185        C  0.62472041  0.68509379  0.03648840     0.82600
N186        N  0.63063558  0.70006772  0.99039705    -0.78100
C187        C  0.61842440  0.68323261  0.27942537     0.82700
N188        N  0.60501413  0.65263741  0.28024037    -0.79800
C189        C  0.51733473  0.26826252  0.99253914     0.80100
N190        N  0.51545988  0.25421886  0.03870445    -0.78200
C191        C  0.50872355  0.22501606  0.04014312     0.82600
N192        N  0.50488202  0.21014990  0.99545072    -0.78100
C193        C  0.50813553  0.22470241  0.28421186     0.82700
N194        N  0.51527747  0.25410474  0.28536554    -0.79800
C195        C  0.73378784  0.48518751  0.36262413     0.80100
N196        N  0.74750259  0.48727292  0.31563842    -0.78200
C197        C  0.77618327  0.49342841  0.31290552     0.82600
N198        N  0.79095572  0.49671676  0.35687165    -0.78100
C199        C  0.77512213  0.49233445  0.06968244     0.82700
N200        N  0.74609234  0.48515726  0.07102341    -0.79800
C201        C  0.54492109  0.50663315  0.33829885    -0.10900
C202        C  0.51420442  0.49033392  0.33061705    -0.04800
C203        C  0.49859958  0.45900459  0.32506193    -0.10900
C204        C  0.51416972  0.44318883  0.32729875     0.10000
C205        C  0.54534466  0.45940805  0.33638973    -0.02700
C206        C  0.56074806  0.49124372  0.34234424     0.09800
C207        C  0.59138136  0.50678657  0.35317306    -0.12700
C208        C  0.60675130  0.49139354  0.35736818    -0.12700
C209        C  0.59226633  0.46008967  0.34934037     0.09800
C210        C  0.56114818  0.44379854  0.33968367    -0.02700
C211        C  0.49944834  0.41170214  0.32076985    -0.12800
C212        C  0.51499660  0.39636014  0.32375271    -0.12800
C213        C  0.54581426  0.41195928  0.33336687     0.10000
C214        C  0.56183029  0.39665596  0.33664470    -0.10900
C215        C  0.59248433  0.41308251  0.34591644    -0.04800
C216        C  0.60801440  0.44453143  0.35108280    -0.10900
H217        H  0.60363501  0.53096504  0.35920239     0.07300
H218        H  0.63020776  0.50428706  0.36666999     0.07300
H219        H  0.47578733  0.39869936  0.31292378     0.07500
H220        H  0.50266673  0.37213138  0.31828387     0.07500
H221        H  0.50213561  0.50231935  0.32954133     0.03900
H222        H  0.60462760  0.40119171  0.34824358     0.03900
C223        C  0.69166043  0.48508066  0.32009244    -0.05900
C224        C  0.70206896  0.47805177  0.36480021     0.00100
C225        C  0.67830948  0.45862432  0.06731214    -0.08500
C226        C  0.64844155  0.45083739  0.06056122    -0.05900
C227        C  0.64094477  0.45994484  0.35654371     0.00100
C228        C  0.66136547  0.47579382  0.31461670    -0.08400
C229        C  0.65160320  0.48269965  0.26376960     0.62000
H230        H  0.70748191  0.49757421  0.28844095     0.12700
H231        H  0.63145677  0.43825222  0.09068312     0.12700
C232        C  0.68584423  0.44848517  0.11726497     0.62200
F233        F  0.67524052  0.49424415  0.88662162    -0.23000
F234        F  0.63984875  0.49885115  0.92862759    -0.20300
F235        F  0.62510659  0.45803000  0.24813134    -0.20000
F236        F  0.70547046  0.47347966  0.14502396    -0.20000
F237        F  0.70288396  0.43651639  0.44631908    -0.20300
F238        F  0.66614267  0.43735700  0.49123683    -0.23000
C239        C  0.53929204  0.31841443  0.28829172    -0.05900
C240        C  0.52469098  0.30039789  0.99074212     0.00100
C241        C  0.51583539  0.31339223  0.03074123    -0.08500
C242        C  0.52655743  0.34465193  0.02812864    -0.05900
C243        C  0.54452051  0.36299395  0.98621072     0.00100
C244        C  0.54996302  0.34967678  0.28705332    -0.08400
C245        C  0.56415072  0.36829078  0.23750318     0.62000
H246        H  0.54209775  0.30813969  0.25387882     0.12700
H247        H  0.52190933  0.35534115  0.06005264     0.12700
C248        C  0.49522820  0.29488045  0.07627663     0.62200
F249        F  0.59407923  0.38920255  0.24458357    -0.23000
F250        F  0.54955986  0.38339068  0.22439331    -0.20300
F251        F  0.56236751  0.35039444  0.19636912    -0.20000
F252        F  0.51096589  0.28848244  0.11138469    -0.20000
F253        F  0.47121737  0.26819434  0.05918114    -0.20300
F254        F  0.48366110  0.31037030  0.10191257    -0.23000
C255        C  0.57551762  0.55548311  0.29181060    -0.05900
C256        C  0.56194161  0.54135056  0.00677804     0.00100
C257        C  0.56333498  0.55868527  0.04975099    -0.08500
C258        C  0.57768945  0.59027148  0.04312228    -0.05900
C259        C  0.59086726  0.60509814  0.99506964     0.00100
C260        C  0.58880119  0.58701398  0.28586532    -0.08400
C261        C  0.60622887  0.60215393  0.23553391     0.62000
H262        H  0.57676036  0.54232145  0.26035052     0.12700
H263        H  0.57836368  0.60355387  0.07588632     0.12700
C264        C  0.55005994  0.54381250  0.10244932     0.62200
F265        F  0.60370400  0.57945435  0.86622438    -0.23000
F266        F  0.63407741  0.62315229  0.90410351    -0.20300
F267        F  0.59137052  0.61324686  0.20781885    -0.20000
F268        F  0.55500153  0.56489162  0.13979556    -0.20000
F269        F  0.55432972  0.52380418  0.44878783    -0.20300
F270        F  0.51162421  0.52028219  0.42308473    -0.23000
C271        C  0.44983442  0.43255519  0.04605165    -0.05900
C272        C  0.46552553  0.44359088  0.32391052     0.00100
C273        C  0.45063463  0.44761072  0.28232382    -0.08500
C274        C  0.41977435  0.43646789  0.28840965    -0.05900
C275        C  0.40344929  0.42148429  0.33436547     0.00100
C276        C  0.41859772  0.41943975  0.05106083    -0.08400
C277        C  0.40313994  0.40417544  0.10268561     0.62000
H278        H  0.46257346  0.43321643  0.07910103     0.12700
H279        H  0.40837633  0.44035589  0.25752431     0.12700
C280        C  0.46711823  0.46339733  0.23166979     0.62200
F281        F  0.42228851  0.40119890  0.13521652    -0.23000
F282        F  0.37660558  0.37083630  0.41138927    -0.20300
F283        F  0.39328539  0.42118316  0.12804387    -0.20000
F284        F  0.48290063  0.45035657  0.21293285    -0.20000
F285        F  0.48774368  0.48654418  0.90422739    -0.20300
F286        F  0.44754444  0.46105532  0.19411832    -0.23000
C287        C  0.96835505  0.46048665  0.37614281    -0.05900
C288        C  0.96829051  0.44575371  0.33067720     0.00100
C289        C  0.95133807  0.44597864  0.95911454    -0.08500
C290        C  0.93170807  0.45683184  0.96629114    -0.05900
C291        C  0.92938883  0.46869395  0.34391312     0.00100
C292        C  0.94989118  0.47283736  0.38314387    -0.08400
C293        C  0.95334832  0.49085673  0.43154059     0.62000
H294        H  0.98324961  0.46226807  0.40630335     0.12700
H295        H  0.91972313  0.45764771  0.93329436     0.12700
C296        C  0.95724750  0.43808342  0.90523366     0.62200
F297        F  0.97809421  0.49625265  0.45900324    -0.23000
F298        F  0.91681144  0.46311842  0.13526272    -0.20300
F299        F  0.95714893  0.51868534  0.41795484    -0.20000
F300        F  0.94543580  0.40722507  0.90247211    -0.20000
F301        F  0.97937798  0.44389342  0.21842449    -0.20300
F302        F  0.94444151  0.44652276  0.86738985    -0.23000
C303        C  0.95962004  0.33674260  0.03808649    -0.05900
C304        C  0.97483101  0.35346864  0.32739029     0.00100
C305        C  0.97213112  0.33661542  0.28270437    -0.08500
C306        C  0.95569634  0.30472098  0.28683720    -0.05900
C307        C  0.94069798  0.28909592  0.33336923     0.00100
C308        C  0.94270638  0.30497289  0.04294745    -0.08400
C309        C  0.92723717  0.29109100  0.09525617     0.62000
H310        H  0.96227518  0.35054460  0.07131514     0.12700
H311        H  0.95433435  0.29173708  0.25315215     0.12700
C312        C  0.98557074  0.35223671  0.23047875     0.62200
F313        F  0.92958056  0.31275304  0.12941946    -0.23000
F314        F  0.94025193  0.27636626  0.11776529    -0.20300
F315        F  0.89437495  0.27263561  0.41787393    -0.20000
F316        F  0.01356474  0.36874250  0.89487356    -0.20000
F317        F  0.97454869  0.37072700  0.21771979    -0.20300
F318        F  0.97860379  0.33163329  0.19138675    -0.23000
C319        C  0.16465151  0.58482344  0.04701571    -0.05900
C320        C  0.17116723  0.60266566  0.32982431     0.00100
C321        C  0.15340700  0.58693038  0.28674204    -0.08500
C322        C  0.13470629  0.55521375  0.29053382    -0.05900
C323        C  0.13184359  0.53897726  0.33614340     0.00100
C324        C  0.14452434  0.55328118  0.05164844    -0.08400
C325        C  0.13917851  0.53692997  0.10366994     0.62000
H326        H  0.17751645  0.59677812  0.08013969     0.12700
H327        H  0.12247441  0.54257838  0.25729625     0.12700
C328        C  0.15335633  0.60290299  0.23697863     0.62200
F329        F  0.15699291  0.55826880  0.47169001    -0.23000
F330        F  0.15424962  0.51931650  0.42925903    -0.20300
F331        F  0.10891258  0.52187666  0.11715854    -0.20000
F332        F  0.17982202  0.61281458  0.20862157    -0.20000
F333        F  0.14837028  0.62626740  0.91957081    -0.20300
F334        F  0.12649643  0.58256541  0.87806186    -0.23000
C335        C  0.17279162  0.43537347  0.29689814    -0.05900
C336        C  0.17501342  0.42325762  0.34464788     0.00100
C337        C  0.15400906  0.41848355  0.05405040    -0.08500
C338        C  0.13630030  0.43172276  0.04925010    -0.05900
C339        C  0.13696288  0.44665395  0.33492290     0.00100
C340        C  0.15364186  0.44668109  0.29107350    -0.08400
C341        C  0.15083899  0.45824807  0.23838309     0.62000
H342        H  0.18643913  0.43629331  0.26378946     0.12700
H343        H  0.12271846  0.43151500  0.08196048     0.12700
C344        C  0.15113469  0.40128693  0.10409003     0.62200
F345        F  0.16118067  0.48887742  0.24006481    -0.23000
F346        F  0.11841407  0.43985980  0.89274888    -0.20300
F347        F  0.16724553  0.45398808  0.19995706    -0.20000
F348        F  0.17689837  0.41711503  0.13190223    -0.20000
F349        F  0.15068236  0.37760856  0.43057775    -0.20300
F350        F  0.12724833  0.39717035  0.13541245    -0.23000
C351        C  0.66671652  0.04796159  0.04741718    -0.05900
C352        C  0.65294872  0.03090770  0.00363967     0.00100
C353        C  0.67324534  0.03319014  0.28974532    -0.08500
C354        C  0.70442207  0.04877862  0.29572069    -0.05900
C355        C  0.71634225  0.06240456  0.01163037     0.00100
C356        C  0.69818458  0.06451621  0.05170322    -0.08400
C357        C  0.71150554  0.08485882  0.09785423     0.62000
H358        H  0.65242198  0.04815535  0.07846282     0.12700
H359        H  0.71861118  0.04959446  0.26360770     0.12700
C360        C  0.66052285  0.02047757  0.23723506     0.62200
F361        F  0.73134319  0.11106841  0.41877081    -0.23000
F362        F  0.72541655  0.06958809  0.46102922    -0.20300
F363        F  0.68988368  0.08645997  0.12766672    -0.20000
F364        F  0.64114970  0.02990541  0.22278108    -0.20000
F365        F  0.66023075  0.99000864  0.90674137    -0.20300
F366        F  0.67646228  0.03573983  0.87012094    -0.23000
C367        C  0.54842481  0.06824637  0.95409782    -0.05900
C368        C  0.53386992  0.07017800  0.99945021     0.00100
C369        C  0.53401597  0.05317559  0.37156331    -0.08500
C370        C  0.54758919  0.03563260  0.36750579    -0.05900
C371        C  0.55870209  0.03230484  0.99604261     0.00100
C372        C  0.56076946  0.04952588  0.95152428    -0.08400
C373        C  0.57599495  0.04811918  0.90149360     0.62000
H374        H  0.55080394  0.08216572  0.92060211     0.12700
H375        H  0.54736120  0.02240744  0.40054279     0.12700
C376        C  0.51728110  0.05105038  0.42214198     0.62200
F377        F  0.56140242  0.01827644  0.21179838    -0.23000
F378        F  0.60559626  0.05979141  0.22955641    -0.20300
F379        F  0.57269028  0.06397012  0.86123510    -0.20000
F380        F  0.48872734  0.04493565  0.41206987    -0.20000
F381        F  0.52859149  0.07595382  0.11973483    -0.20300
F382        F  0.50768696  0.02572608  0.12489555    -0.23000
C383        C  0.46003755  0.84978473  0.02463611    -0.05900
C384        C  0.47446768  0.86705260  0.97963842     0.00100
C385        C  0.45655807  0.86443407  0.26614122    -0.08500
C386        C  0.42514898  0.84517684  0.27121836    -0.05900
C387        C  0.41109515  0.82831076  0.98579531     0.00100
C388        C  0.42876801  0.83005027  0.02861909    -0.08400
C389        C  0.41547597  0.81085463  0.07810897     0.62000
H390        H  0.47383201  0.85184535  0.05693040     0.12700
H391        H  0.41167396  0.84198831  0.23791948     0.12700
C392        C  0.47120512  0.87852448  0.21359781     0.62200
F393        F  0.43861166  0.81979273  0.44527591    -0.23000
F394        F  0.39926752  0.78491969  0.40324268    -0.20300
F395        F  0.39886935  0.82040968  0.10585188    -0.20000
F396        F  0.49131324  0.86964555  0.19950395    -0.20000
F397        F  0.45396166  0.86669914  0.84417259    -0.20300
F398        F  0.49951502  0.88556497  0.87580755    -0.23000
C399        C  0.59712459  0.84871058  0.27713574    -0.05900
C400        C  0.59854596  0.83394841  0.98930575     0.00100
C401        C  0.58125688  0.83464269  0.03259525    -0.08500
C402        C  0.56748461  0.85196019  0.02819081    -0.05900
C403        C  0.56946571  0.86757250  0.98228368     0.00100
C404        C  0.58234728  0.86494528  0.27253219    -0.08400
C405        C  0.58175917  0.87852918  0.22042923     0.62000
H406        H  0.60898546  0.84706099  0.24348654     0.12700
H407        H  0.55494541  0.85360263  0.06084379     0.12700
C408        C  0.57625289  0.81680178  0.08290166     0.62200
F409        F  0.59767732  0.87345790  0.18215327    -0.23000
F410        F  0.60111607  0.91160688  0.89130047    -0.20300
F411        F  0.55240312  0.86560246  0.20548798    -0.20000
F412        F  0.55540585  0.81778849  0.11595176    -0.20000
F413        F  0.60559132  0.83306815  0.44226383    -0.20300
F414        F  0.56552748  0.78667897  0.07239913    -0.23000
O415        O  0.86291794  0.19690798  0.55610081    -0.73000
O416        O  0.80876051  0.13947544  0.45083432    -0.74000
O417        O  0.80846656  0.14056677  0.56037743    -0.62600
O418        O  0.86343617  0.19541266  0.44618352    -0.71000
O419        O  0.88872009  0.17138189  0.44625977    -0.70600
O420        O  0.83364849  0.11645637  0.56231902    -0.61800
O421        O  0.83417628  0.11559307  0.44976677    -0.74300
O422        O  0.88783309  0.17255955  0.55890767    -0.73100
Cu423      Cu  0.83508811  0.16889860  0.50332114     1.04600
Cu424      Cu  0.86204955  0.14312779  0.50437090     1.04300
C425        C  0.88301204  0.19305759  0.57565180     0.93200
C426        C  0.81346399  0.11933187  0.43236960     0.92300
C427        C  0.81291597  0.12052572  0.58031860     0.84500
C428        C  0.88394581  0.19138010  0.42703017     0.90700
C429        C  0.61187867  0.81623889  0.32338217     0.80100
N430        N  0.61723274  0.80654948  0.61123106    -0.78200
C431        C  0.62992911  0.78929150  0.60999250     0.82600
N432        N  0.63733393  0.78145223  0.32165736    -0.78100
C433        C  0.63126870  0.79009085  0.36758352     0.82700
N434        N  0.61845776  0.80724175  0.36808998    -0.79800
C435        C  0.37715945  0.80892921  0.31895243     0.80100
N436        N  0.36105212  0.79921726  0.36463594    -0.78200
C437        C  0.33083759  0.78073635  0.36562246     0.82600
N438        N  0.31645646  0.77162551  0.32049203    -0.78100
C439        C  0.33241160  0.77912377  0.60825159     0.82700
N440        N  0.36287251  0.79628797  0.60666825    -0.79800
C441        C  0.52437344  0.09284666  0.32864751     0.80100
N442        N  0.51938554  0.10291820  0.37426664    -0.78200
C443        C  0.50883233  0.12212056  0.37492477     0.82600
N444        N  0.50447222  0.13246924  0.32973283    -0.78100
C445        C  0.50557991  0.12030668  0.61863504     0.82700
N446        N  0.51487073  0.10005706  0.61846740    -0.79800
C447        C  0.75145628  0.08030702  0.34241805     0.80100
N448        N  0.76663185  0.08825996  0.38733327    -0.78200
C449        C  0.79713075  0.10338475  0.38649933     0.82600
N450        N  0.81253727  0.11122041  0.34033244    -0.78100
C451        C  0.79574563  0.10440399  0.62746961     0.82700
N452        N  0.76534318  0.08947246  0.62828481    -0.79800
C453        C  0.50727715  0.88748008  0.30886859    -0.10900
C454        C  0.52227075  0.87139413  0.30934272    -0.04800
C455        C  0.55317465  0.88603618  0.31583238    -0.10900
C456        C  0.56987110  0.91763198  0.32266863     0.10000
C457        C  0.55543989  0.93452837  0.31961185    -0.02700
C458        C  0.52393131  0.91941952  0.31366495     0.09800
C459        C  0.51000344  0.93663094  0.31345516    -0.12700
C460        C  0.52688254  0.96814783  0.31541804    -0.12700
C461        C  0.55823889  0.98359038  0.31980425     0.09800
C462        C  0.57255858  0.96657575  0.32307054    -0.02700
C463        C  0.60064928  0.93269457  0.33269533    -0.12800
C464        C  0.61730113  0.96400606  0.33670630    -0.12800
C465        C  0.60397465  0.98150508  0.32979906     0.10000
C466        C  0.62122122  0.01352976  0.32987955    -0.10900
C467        C  0.60674160  0.03005329  0.32662012    -0.04800
C468        C  0.57562517  0.01558902  0.32151493    -0.10900
H469        H  0.48594160  0.92588455  0.31062187     0.07300
H470        H  0.51507027  0.98031268  0.31334846     0.07300
H471        H  0.61224074  0.92041797  0.33697535     0.07500
H472        H  0.64095727  0.97447285  0.34409227     0.07500
H473        H  0.50955449  0.84696261  0.30591618     0.03900
H474        H  0.61989731  0.05456118  0.32804405     0.03900
O475        O  0.26238977  0.42616043  0.45685706    -0.73000
O476        O  0.31777111  0.42799736  0.56341188    -0.74000
O477        O  0.31762466  0.42837559  0.45273467    -0.62600
O478        O  0.26262891  0.42544283  0.56740195    -0.71000
O479        O  0.23838950  0.37509305  0.56829632    -0.70600
O480        O  0.29374419  0.37805076  0.45525754    -0.61800
O481        O  0.29297844  0.37762220  0.56622489    -0.74300
O482        O  0.23913322  0.37587659  0.45692538    -0.73100
Cu483      Cu  0.29096747  0.42881101  0.51004056     1.04600
Cu484      Cu  0.26522160  0.37493510  0.51168549     1.04300
C485        C  0.24298709  0.40075030  0.43857821     0.93200
C486        C  0.31309295  0.40308511  0.58315704     0.92300
C487        C  0.31350361  0.40348720  0.43492064     0.84500
C488        C  0.24279181  0.39980353  0.58718610     0.90700
O489        O  0.26110546  0.68963530  0.54686511    -0.73000
O490        O  0.31705915  0.74376225  0.43196734    -0.74000
O491        O  0.31826146  0.74335998  0.54220125    -0.62600
O492        O  0.26026237  0.69009840  0.43681320    -0.71000
O493        O  0.23876547  0.71785273  0.43772671    -0.70600
O494        O  0.29613358  0.77047583  0.54599817    -0.61800
O495        O  0.29532713  0.77128155  0.43385835    -0.74300
O496        O  0.23930104  0.71707279  0.54950647    -0.73100
Cu497      Cu  0.28991716  0.71579644  0.48938352     1.04600
Cu498      Cu  0.26660453  0.74516712  0.49189266     1.04300
C499        C  0.24199352  0.69538205  0.56717244     0.93200
C500        C  0.31429455  0.76527298  0.41368961     0.92300
C501        C  0.31564254  0.76453652  0.56203237     0.84500
C502        C  0.24123067  0.69623938  0.41934276     0.90700
C503        C  0.19552835  0.41018044  0.68385600     0.80100
N504        N  0.20665097  0.40703553  0.63751578    -0.78200
C505        C  0.22758118  0.39893953  0.63575790     0.82600
N506        N  0.23791979  0.39437163  0.68034824    -0.78100
C507        C  0.22778509  0.40037163  0.39183983     0.82700
N508        N  0.20821491  0.41031555  0.39155157    -0.79800
C509        C  0.19290644  0.63487625  0.66367709     0.80100
N510        N  0.20464085  0.64970595  0.61721677    -0.78200
C511        C  0.22611993  0.67964494  0.61553613     0.82600
N512        N  0.23675477  0.69442923  0.66023686    -0.78100
C513        C  0.22534158  0.68097630  0.37296514     0.82700
N514        N  0.20448095  0.65089041  0.37386635    -0.79800
C515        C  0.92079338  0.25521306  0.66885327     0.80100
N516        N  0.91260941  0.24034017  0.62303313    -0.78200
C517        C  0.89738272  0.20951908  0.62248185     0.82600
N518        N  0.88926695  0.19352360  0.66788451    -0.78100
C519        C  0.89979632  0.20811137  0.37939795     0.82700
N520        N  0.91533579  0.23877900  0.37872965    -0.79800
C521        C  0.90835668  0.48093047  0.68346095     0.80100
N522        N  0.89792271  0.48582261  0.63886239    -0.78200
C523        C  0.87740407  0.49445244  0.64038223     0.82600
N524        N  0.86670476  0.49775165  0.68654805    -0.78100
C525        C  0.87727018  0.49284113  0.39677622     0.82700
N526        N  0.89712363  0.48312446  0.39454084    -0.79800
C527        C  0.11644655  0.45791416  0.67844836    -0.10900
C528        C  0.13053330  0.48937742  0.68073129    -0.04800
C529        C  0.11434562  0.50411011  0.67840894    -0.10900
C530        C  0.08280212  0.48669045  0.67389769     0.10000
C531        C  0.06811700  0.45459551  0.67210659    -0.02700
C532        C  0.08501214  0.44014741  0.67436245     0.09800
C533        C  0.07013216  0.40839499  0.67178149    -0.12700
C534        C  0.03911558  0.39106404  0.66808160    -0.12700
C535        C  0.02183294  0.40482976  0.66595903     0.09800
C536        C  0.03647589  0.43690404  0.66799353    -0.02700
C537        C  0.06555299  0.50046399  0.67138632    -0.12800
C538        C  0.03458535  0.48315071  0.66717546    -0.12800
C539        C  0.01952289  0.45132878  0.66654683     0.07000
C540        C  0.98790104  0.43352311  0.66503374    -0.10900
C541        C  0.97378598  0.40191814  0.66419893    -0.04800
C542        C  0.99022781  0.38736288  0.66273578    -0.10900
H543        H  0.08232826  0.39659482  0.67270089     0.07300
H544        H  0.02876944  0.36669748  0.66677479     0.07300
H545        H  0.07579131  0.52477615  0.67303020     0.07500
H546        H  0.02255180  0.49507915  0.66468204     0.07500
H547        H  0.15474679  0.50271480  0.68289841     0.03900
H548        H  0.94949180  0.38833214  0.66516771     0.03900
O549        O  0.48002272  0.18460154  0.55220177    -0.73000
O550        O  0.48204220  0.13105504  0.44107454    -0.74000
O551        O  0.48055219  0.13027096  0.55306161    -0.62600
O552        O  0.48118268  0.18502505  0.44080305    -0.71000
O553        O  0.53103697  0.21129991  0.43967688    -0.70600
O554        O  0.53039271  0.15675182  0.55151277    -0.61800
O555        O  0.53186012  0.15708846  0.44120444    -0.74300
O556        O  0.52985797  0.21124883  0.54962775    -0.73100
Cu557      Cu  0.47915350  0.15675374  0.49683930     1.04600
Cu558      Cu  0.53248251  0.18497001  0.49547937     1.04300
C559        C  0.50476528  0.20590159  0.56907799     0.93200
C560        C  0.50739091  0.13650484  0.42252648     0.92300
C561        C  0.50542232  0.13565406  0.57103776     0.84500
C562        C  0.50626588  0.20617399  0.42174350     0.90700
O563        O  0.84241694  0.46869489  0.46660930    -0.73000
O564        O  0.78779713  0.46943450  0.57819040    -0.74000
O565        O  0.78842693  0.46926205  0.46807750    -0.62600
O566        O  0.84178482  0.46950071  0.57691616    -0.71000
O567        O  0.86796935  0.51987967  0.57402507    -0.70600
O568        O  0.81386764  0.51963160  0.46645939    -0.61800
O569        O  0.81419893  0.51977306  0.57756075    -0.74300
O570        O  0.86756831  0.51900453  0.46238399    -0.73100
Cu571      Cu  0.81423275  0.46747914  0.52251388     1.04600
Cu572      Cu  0.84185033  0.52136446  0.51996206     1.04300
C573        C  0.86274065  0.49364300  0.44551999     0.93200
C574        C  0.79314588  0.49455700  0.59678493     0.92300
C575        C  0.79325463  0.49446120  0.44941852     0.84500
C576        C  0.86243545  0.49470681  0.59387487     0.90700
O577        O  0.65370124  0.77565439  0.43195715    -0.73000
O578        O  0.64537610  0.71773872  0.54523566    -0.74000
O579        O  0.64609197  0.71792106  0.43400147    -0.62600
O580        O  0.65285748  0.77534350  0.54427399    -0.71000
O581        O  0.60338225  0.75494606  0.54494752    -0.70600
O582        O  0.59650375  0.69682857  0.43715646    -0.61800
O583        O  0.59582770  0.69690066  0.54717555    -0.74300
O584        O  0.60418184  0.75492965  0.43509726    -0.73100
Cu585      Cu  0.65127713  0.74741179  0.48880580     1.04600
Cu586      Cu  0.59826107  0.72519507  0.49113428     1.04300
C587        C  0.62994322  0.77350881  0.41459677     0.93200
C588        C  0.61946258  0.69903161  0.56502030     0.92300
C589        C  0.62027165  0.69908391  0.41724602     0.84500
C590        C  0.62893648  0.77324898  0.56319477     0.90700
C591        C  0.37281520  0.41558268  0.67175671     0.80100
N592        N  0.35795024  0.41244082  0.62739695    -0.78200
C593        C  0.32858771  0.40375729  0.62954423     0.82600
N594        N  0.31392213  0.39846659  0.67595955    -0.78100
C595        C  0.32856379  0.40377929  0.38644847     0.82700
N596        N  0.35766017  0.41131187  0.38417506    -0.79800
C597        C  0.59917267  0.63694544  0.32597062     0.80100
N598        N  0.60497303  0.65221465  0.37115633    -0.78200
C599        C  0.61798370  0.68275789  0.37032816     0.82600
N600        N  0.62475075  0.69813266  0.32452282    -0.78100
C601        C  0.61711490  0.68252474  0.61254612     0.82700
N602        N  0.60512577  0.65214094  0.61343981    -0.79800
C603        C  0.51766444  0.26772891  0.33181961     0.80100
N604        N  0.51431739  0.25184593  0.37635845    -0.78200
C605        C  0.50692591  0.22252814  0.37507375     0.82600
N606        N  0.50392847  0.20914941  0.32907761    -0.78100
C607        C  0.50477834  0.22151828  0.61605156     0.82700
N608        N  0.51283876  0.25119259  0.61509339    -0.79800
C609        C  0.73301223  0.48215225  0.69179759     0.80100
N610        N  0.74814736  0.48585902  0.64573031    -0.78200
C611        C  0.77744693  0.49406107  0.64474149     0.82600
N612        N  0.79150050  0.49770883  0.68973958    -0.78100
C613        C  0.77759957  0.49438635  0.40357314     0.82700
N614        N  0.74907933  0.48863203  0.40654308    -0.79800
C615        C  0.54653685  0.50639791  0.66884914    -0.10900
C616        C  0.51581516  0.49080654  0.66094408    -0.04800
C617        C  0.49957825  0.45945057  0.65553931    -0.10900
C618        C  0.51452995  0.44303553  0.65613126     0.10000
C619        C  0.54574633  0.45858240  0.66449793    -0.02700
C620        C  0.56167675  0.49027908  0.67226193     0.09800
C621        C  0.59217222  0.50495391  0.68382992    -0.12700
C622        C  0.60701015  0.48893546  0.68608272    -0.12700
C623        C  0.59220045  0.45799454  0.67459045     0.09800
C624        C  0.56109497  0.44245850  0.66502860    -0.02700
C625        C  0.49916659  0.41162694  0.64841681    -0.12800
C626        C  0.51432561  0.39581687  0.64826014    -0.12800
C627        C  0.54530556  0.41083453  0.65625603     0.10000
C628        C  0.56102417  0.39514407  0.65588864    -0.10900
C629        C  0.59179364  0.41097239  0.66398606    -0.04800
C630        C  0.60760869  0.44206918  0.67256106    -0.10900
H631        H  0.60474971  0.52893691  0.69158950     0.07300
H632        H  0.63046876  0.50118682  0.69549326     0.07300
H633        H  0.47536039  0.39912684  0.64159568     0.07500
H634        H  0.50161819  0.37173307  0.64141425     0.07500
H635        H  0.50423059  0.50329535  0.65970508     0.03900
H636        H  0.60364996  0.39873841  0.66427764     0.03900
C637        C  0.69156438  0.48189651  0.64634727    -0.05900
C638        C  0.70102869  0.47419861  0.69162055     0.00100
C639        C  0.68152127  0.46284491  0.40751055    -0.08500
C640        C  0.65132947  0.45438452  0.40240533    -0.05900
C641        C  0.64027396  0.45656302  0.67977844     0.00100
C642        C  0.66144851  0.47279626  0.63913958    -0.08400
C643        C  0.65209339  0.47902147  0.58730966     0.62000
H644        H  0.70793905  0.49449956  0.61547741     0.12700
H645        H  0.63503089  0.44203996  0.43357662     0.12700
C646        C  0.69046105  0.45407105  0.45740376     0.62200
F647        F  0.67289762  0.48993177  0.22431810    -0.23000
F648        F  0.64772537  0.50711319  0.26973093    -0.20300
F649        F  0.63132532  0.45199381  0.56569666    -0.20000
F650        F  0.71086544  0.47983258  0.48271474    -0.20000
F651        F  0.69995486  0.43074798  0.77093667    -0.20300
F652        F  0.66206749  0.43034059  0.81432021    -0.23000
C653        C  0.53734316  0.31572840  0.61243715    -0.05900
C654        C  0.52610768  0.30031182  0.33355465     0.00100
C655        C  0.52189307  0.31401916  0.37850066    -0.08500
C656        C  0.53302070  0.34540807  0.37700179    -0.05900
C657        C  0.54740502  0.36329297  0.33261212     0.00100
C658        C  0.54776860  0.34694261  0.60873667    -0.08400
C659        C  0.56093779  0.36430974  0.55774422     0.62000
H660        H  0.53927751  0.30447855  0.57862486     0.12700
H661        H  0.53136651  0.35659778  0.41120485     0.12700
C662        C  0.50576812  0.29630625  0.42814899     0.62200
F663        F  0.59093975  0.38567646  0.56276474    -0.23000
F664        F  0.54583492  0.37877854  0.54393282    -0.20300
F665        F  0.55867560  0.34543870  0.51796204    -0.20000
F666        F  0.52327021  0.28745060  0.45331904    -0.20000
F667        F  0.47848022  0.27116344  0.41677036    -0.20300
F668        F  0.49997979  0.31346036  0.46226631    -0.23000
C669        C  0.57631247  0.55529304  0.62212490    -0.05900
C670        C  0.55996468  0.54003349  0.33750309     0.00100
C671        C  0.55753281  0.55607587  0.37953335    -0.08500
C672        C  0.57038534  0.58755421  0.37371499    -0.05900
C673        C  0.58575194  0.60340882  0.32751229     0.00100
C674        C  0.58960422  0.58686456  0.61664755    -0.08400
C675        C  0.60456084  0.60173836  0.56454056     0.62000
H676        H  0.57601760  0.54204209  0.58949424     0.12700
H677        H  0.56817282  0.59994709  0.40546839     0.12700
C678        C  0.54180463  0.53998305  0.43040776     0.62200
F679        F  0.60931531  0.58216295  0.20417035    -0.23000
F680        F  0.63476696  0.62549284  0.24616206    -0.20300
F681        F  0.58825832  0.61244951  0.54048383    -0.20000
F682        F  0.54439943  0.56014724  0.46801272    -0.20000
F683        F  0.56018353  0.52335372  0.77938186    -0.20300
F684        F  0.51697298  0.52023188  0.75807879    -0.23000
C685        C  0.44921420  0.42738728  0.36867766    -0.05900
C686        C  0.46660018  0.44465163  0.65598080     0.00100
C687        C  0.45127600  0.44690688  0.61354216    -0.08500
C688        C  0.42084914  0.43743597  0.62078695    -0.05900
C689        C  0.40506221  0.42467154  0.66834133     0.00100
C690        C  0.41826026  0.41585516  0.37470987    -0.08400
C691        C  0.40200804  0.39773006  0.42387588     0.62000
H692        H  0.46132060  0.42479919  0.39988424     0.12700
H693        H  0.40930544  0.44025947  0.58895403     0.12700
C694        C  0.46684080  0.45843950  0.56062687     0.62200
F695        F  0.41981034  0.39052416  0.45229924    -0.23000
F696        F  0.37933661  0.37591860  0.74977762    -0.20300
F697        F  0.39412574  0.41437384  0.45518648    -0.20000
F698        F  0.47917570  0.44143495  0.54496400    -0.20000
F699        F  0.48683466  0.49383514  0.23918033    -0.20300
F700        F  0.44711310  0.45616131  0.52342098    -0.23000
C701        C  0.96829456  0.46145465  0.71374393    -0.05900
C702        C  0.96868009  0.44704943  0.66802877     0.00100
C703        C  0.94943073  0.44322990  0.29017888    -0.08500
C704        C  0.93002667  0.45438065  0.29783919    -0.05900
C705        C  0.93019381  0.47037713  0.68003520     0.00100
C706        C  0.95051280  0.47465080  0.71950525    -0.08400
C707        C  0.95511942  0.49454115  0.76572174     0.62000
H708        H  0.98264387  0.46282840  0.74461078     0.12700
H709        H  0.91488566  0.45161345  0.26753138     0.12700
C710        C  0.95026936  0.42945537  0.23865199     0.62200
F711        F  0.98033115  0.50064758  0.79238673    -0.23000
F712        F  0.92830154  0.47503920  0.46407503    -0.20300
F713        F  0.95908173  0.52198506  0.74890404    -0.20000
F714        F  0.93977069  0.39895131  0.24518735    -0.20000
F715        F  0.98429557  0.45151486  0.55634989    -0.20300
F716        F  0.93254454  0.43226228  0.20275976    -0.23000
C717        C  0.95976381  0.33829229  0.37354776    -0.05900
C718        C  0.97314298  0.35362323  0.66314975     0.00100
C719        C  0.96946077  0.33670675  0.61815048    -0.08500
C720        C  0.95302887  0.30484329  0.62242432    -0.05900
C721        C  0.93840454  0.28927326  0.66921886     0.00100
C722        C  0.94203270  0.30647684  0.37739316    -0.08400
C723        C  0.92423356  0.29237490  0.42794913     0.62000
H724        H  0.96176139  0.35190829  0.40671858     0.12700
H725        H  0.95095418  0.29184986  0.58838326     0.12700
C726        C  0.98125171  0.35216276  0.56533286     0.62200
F727        F  0.92530508  0.31395365  0.46100077    -0.23000
F728        F  0.93581089  0.27721205  0.45371708    -0.20300
F729        F  0.89280601  0.27395542  0.75454004    -0.20000
F730        F  0.01641312  0.36958025  0.23220074    -0.20000
F731        F  0.96705789  0.36768382  0.55262658    -0.20300
F732        F  0.97596686  0.33156122  0.52686019    -0.23000
C733        C  0.16704918  0.58619621  0.37627467    -0.05900
C734        C  0.17005586  0.60162268  0.66690098     0.00100
C735        C  0.15092956  0.58497621  0.62589322    -0.08500
C736        C  0.13301486  0.55318991  0.63132067    -0.05900
C737        C  0.13171360  0.53784696  0.67732764     0.00100
C738        C  0.14736428  0.55467485  0.38045551    -0.08400
C739        C  0.14282096  0.53826479  0.43217973     0.62000
H740        H  0.17987758  0.59806398  0.40948412     0.12700
H741        H  0.11985796  0.53988332  0.59933757     0.12700
C742        C  0.14810187  0.60017150  0.57747101     0.62200
F743        F  0.15752470  0.56060294  0.81130338    -0.23000
F744        F  0.15850958  0.52274000  0.77151270    -0.20300
F745        F  0.11253733  0.52129999  0.44526145    -0.20000
F746        F  0.17342736  0.61081898  0.54558286    -0.20000
F747        F  0.14995169  0.62718229  0.24847272    -0.20300
F748        F  0.12991196  0.58386972  0.20603288    -0.23000
C749        C  0.17239498  0.43511563  0.63886830    -0.05900
C750        C  0.17371256  0.42071991  0.68448922     0.00100
C751        C  0.15654067  0.42153604  0.38779990    -0.08500
C752        C  0.13833052  0.43405354  0.38218691    -0.05900
C753        C  0.13562679  0.44450176  0.67894337     0.00100
C754        C  0.15337282  0.44667392  0.63504149    -0.08400
C755        C  0.15206717  0.46094314  0.58413131     0.62000
H756        H  0.18685983  0.43784589  0.60583562     0.12700
H757        H  0.12480742  0.43410686  0.41476646     0.12700
C758        C  0.15507614  0.40608688  0.43915548     0.62200
F759        F  0.16371230  0.49162633  0.58974917    -0.23000
F760        F  0.12111804  0.44294802  0.22476590    -0.20300
F761        F  0.16837999  0.45732273  0.54464935    -0.20000
F762        F  0.18134733  0.42339296  0.46506632    -0.20000
F763        F  0.14750593  0.37101610  0.76376056    -0.20300
F764        F  0.13158970  0.40234293  0.47116529    -0.23000
C765        C  0.66751908  0.04554288  0.37844415    -0.05900
C766        C  0.65453724  0.03055473  0.33264176     0.00100
C767        C  0.67057025  0.03399696  0.62159196    -0.08500
C768        C  0.70182526  0.04924394  0.62711995    -0.05900
C769        C  0.71783373  0.06349471  0.34186232     0.00100
C770        C  0.69892021  0.06277318  0.38356936    -0.08400
C771        C  0.71126887  0.08104824  0.43225017     0.62000
H772        H  0.65265221  0.04388552  0.41011488     0.12700
H773        H  0.71585050  0.05001328  0.59475612     0.12700
C774        C  0.65746824  0.02143615  0.56917578     0.62200
F775        F  0.73074436  0.11054518  0.75207310    -0.23000
F776        F  0.72241582  0.06769740  0.79294776    -0.20300
F777        F  0.68885666  0.08022575  0.46359538    -0.20000
F778        F  0.63893253  0.03192503  0.55481869    -0.20000
F779        F  0.64527145  0.98923910  0.23935876    -0.20300
F780        F  0.68284854  0.03019436  0.19893921    -0.23000
C781        C  0.54941948  0.06930410  0.28118699    -0.05900
C782        C  0.53596887  0.07147376  0.32790034     0.00100
C783        C  0.52626530  0.04811710  0.70535337    -0.08500
C784        C  0.54049849  0.03114996  0.70259816    -0.05900
C785        C  0.56168692  0.03452149  0.32150103     0.00100
C786        C  0.56196319  0.05080763  0.27706921    -0.08400
C787        C  0.57520332  0.04832596  0.22552869     0.62000
H788        H  0.55045694  0.08254260  0.24760264     0.12700
H789        H  0.53866556  0.01678143  0.73508593     0.12700
C790        C  0.50588937  0.04340215  0.75223061     0.62200
F791        F  0.56152834  0.01884760  0.54891274    -0.23000
F792        F  0.60433734  0.06111315  0.56991353    -0.20300
F793        F  0.57130367  0.06423271  0.18612311    -0.20000
F794        F  0.47910107  0.03992718  0.73638519    -0.20000
F795        F  0.53275543  0.07784760  0.44842908    -0.20300
F796        F  0.51418978  0.02802690  0.45466957    -0.23000
C797        C  0.45983682  0.85387509  0.35685831    -0.05900
C798        C  0.47391163  0.86929917  0.31027750     0.00100
C799        C  0.45682175  0.86190545  0.59651162    -0.08500
C800        C  0.42551834  0.84236621  0.60257698    -0.05900
C801        C  0.41068183  0.82947895  0.31808560     0.00100
C802        C  0.42872856  0.83339929  0.36160609    -0.08400
C803        C  0.41616052  0.81559654  0.41256812     0.62000
H804        H  0.47389156  0.85759575  0.38959127     0.12700
H805        H  0.41157882  0.83937999  0.57007865     0.12700
C806        C  0.47083510  0.87579417  0.54359683     0.62200
F807        F  0.44200042  0.81268136  0.77040283    -0.23000
F808        F  0.40157195  0.77941887  0.72843849    -0.20300
F809        F  0.39876098  0.82490842  0.43832666    -0.20000
F810        F  0.48915721  0.86510512  0.52725877    -0.20000
F811        F  0.48629672  0.90971805  0.21561268    -0.20300
F812        F  0.45033821  0.86972811  0.17528067    -0.23000
C813        C  0.60163764  0.85182902  0.61026781    -0.05900
C814        C  0.59666431  0.83420876  0.32402701     0.00100
C815        C  0.58082525  0.83640090  0.36833820    -0.08500
C816        C  0.56680033  0.85343914  0.36358058    -0.05900
C817        C  0.56745637  0.86756436  0.31675095     0.00100
C818        C  0.58768669  0.86874124  0.60396901    -0.08400
C819        C  0.59129523  0.88537319  0.55285135     0.62000
H820        H  0.61530990  0.85125363  0.57852293     0.12700
H821        H  0.55515832  0.85609178  0.39660896     0.12700
C822        C  0.57782017  0.82072589  0.42035310     0.62200
F823        F  0.60769759  0.87994233  0.51607788    -0.23000
F824        F  0.59420455  0.90946616  0.22389511    -0.20300
F825        F  0.56341075  0.87598802  0.53331931    -0.20000
F826        F  0.55914843  0.82404066  0.45534874    -0.20000
F827        F  0.60244194  0.83134979  0.77507704    -0.20300
F828        F  0.56564945  0.78999384  0.41367477    -0.23000
O829        O  0.86080931  0.19426947  0.89071111    -0.73000
O830        O  0.80590082  0.13747172  0.78502167    -0.74000
O831        O  0.80672020  0.13780182  0.89493572    -0.62600
O832        O  0.86022219  0.19394796  0.78101023    -0.71000
O833        O  0.88571954  0.17014276  0.77811321    -0.70600
O834        O  0.83242760  0.11420663  0.89483137    -0.61800
O835        O  0.83159394  0.11390186  0.78186061    -0.74300
O836        O  0.88626372  0.17042265  0.89023592    -0.73100
Cu837      Cu  0.83253123  0.16661436  0.83794798     1.04600
Cu838      Cu  0.85991284  0.14126421  0.83618894     1.04300
C839        C  0.88147621  0.19065797  0.90834929     0.93200
C840        C  0.81074640  0.11767228  0.76528119     0.92300
C841        C  0.81187815  0.11813227  0.91428479     0.84500
C842        C  0.88078187  0.19039885  0.76068018     0.90700
C843        C  0.61237418  0.81653671  0.65697064     0.80100
N844        N  0.62055791  0.80755707  0.94352731    -0.78200
C845        C  0.63471545  0.79160199  0.94249560     0.82600
N846        N  0.63676784  0.78085428  0.65495061    -0.78100
C847        C  0.63141382  0.78996601  0.70098303     0.82700
N848        N  0.61897625  0.80754852  0.70183726    -0.79800
C849        C  0.37825043  0.80570517  0.65146309     0.80100
N850        N  0.36258688  0.79638162  0.69765987    -0.78200
C851        C  0.33220295  0.77898355  0.69932432     0.82600
N852        N  0.31732584  0.77051199  0.65459052    -0.78100
C853        C  0.33266663  0.77941729  0.94114335     0.82700
N854        N  0.36308082  0.79769295  0.94051830    -0.79800
C855        C  0.51943146  0.08962546  0.66399484     0.80100
N856        N  0.51622355  0.10114224  0.70937907    -0.78200
C857        C  0.50665281  0.12115589  0.70955582     0.82600
N858        N  0.50153802  0.13074115  0.66418727    -0.78100
C859        C  0.50866956  0.12223589  0.95231545     0.82700
N860        N  0.51815214  0.10203590  0.95282736    -0.79800
C861        C  0.74915417  0.07999805  0.67394975     0.80100
N862        N  0.76413605  0.08716609  0.71908925    -0.78200
C863        C  0.79461769  0.10237347  0.71872243     0.82600
N864        N  0.81022880  0.11092292  0.67274762    -0.78100
C865        C  0.79575747  0.10246035  0.96243020     0.82700
N866        N  0.76538218  0.08745580  0.96476534    -0.79800
C867        C  0.50801147  0.88632693  0.63755631    -0.10900
C868        C  0.52421549  0.87150625  0.63594890    -0.04800
C869        C  0.55508321  0.88712622  0.64314433    -0.10900
C870        C  0.57054266  0.91843306  0.65225916     0.10000
C871        C  0.55498096  0.93423574  0.65063212    -0.02700
C872        C  0.52348174  0.91814109  0.64429080     0.09800
C873        C  0.50840920  0.93425539  0.64569040    -0.12700
C874        C  0.52420829  0.96570375  0.65003252    -0.12700
C875        C  0.55555590  0.98210533  0.65503702     0.09800
C876        C  0.57096333  0.96612352  0.65632934    -0.02700
C877        C  0.60110169  0.93418841  0.66389907    -0.12800
C878        C  0.61670426  0.96534927  0.66936351    -0.12800
C879        C  0.60240341  0.98194090  0.66301833     0.10000
C880        C  0.61876329  0.01391313  0.66368033    -0.10900
C881        C  0.60323838  0.02945743  0.66315814    -0.04800
C882        C  0.57197677  0.01404841  0.65880803    -0.10900
H883        H  0.48433833  0.92272821  0.64224618     0.07300
H884        H  0.51155574  0.97704719  0.64916632     0.07300
H885        H  0.61343144  0.92264255  0.66782988     0.07500
H886        H  0.64033933  0.97643781  0.67731644     0.07500
H887        H  0.51239095  0.84715871  0.63133610     0.03900
H888        H  0.61569997  0.05393434  0.66558162     0.03900
O889        O  0.26226042  0.42221764  0.79168941    -0.73000
O890        O  0.31563321  0.42170723  0.89970740    -0.74000
O891        O  0.31720684  0.42431398  0.78959474    -0.62600
O892        O  0.26072481  0.42006997  0.90151977    -0.71000
O893        O  0.23659581  0.36975239  0.90240049    -0.70600
O894        O  0.29245782  0.37402178  0.78729820    -0.61800
O895        O  0.29139051  0.37138936  0.89890630    -0.74300
O896        O  0.23771071  0.37188470  0.79081232    -0.73100
Cu897      Cu  0.28981222  0.42378866  0.84573669     1.04600
Cu898      Cu  0.26367806  0.36993846  0.84486445     1.04300
C899        C  0.24236825  0.39718054  0.77301928     0.93200
C900        C  0.31123829  0.39649951  0.91743526     0.92300
C901        C  0.31279986  0.39994304  0.76919707     0.84500
C902        C  0.24048345  0.39447697  0.92063631     0.90700
O903        O  0.26158190  0.68845359  0.88069235    -0.73000
O904        O  0.31851509  0.74269708  0.76677467    -0.74000
O905        O  0.31881250  0.74249832  0.87689016    -0.62600
O906        O  0.26147374  0.68915624  0.77007054    -0.71000
O907        O  0.23945776  0.71642435  0.77148935    -0.70600
O908        O  0.29705990  0.77000309  0.87775603    -0.61800
O909        O  0.29607750  0.76954861  0.76627234    -0.74300
O910        O  0.24035788  0.71642349  0.88324915    -0.73100
Cu911      Cu  0.29082900  0.71473313  0.82357151     1.04600
Cu912      Cu  0.26745485  0.74405332  0.82479309     1.04300
C913        C  0.24274197  0.69456010  0.90107776     0.93200
C914        C  0.31555409  0.76385496  0.74744368     0.92300
C915        C  0.31640630  0.76419712  0.89495107     0.84500
C916        C  0.24226006  0.69512282  0.75272970     0.90700
C917        C  0.19426849  0.40937854  0.01261519     0.80100
N918        N  0.20471457  0.40404126  0.96737179    -0.78200
C919        C  0.22433288  0.39412322  0.96785415     0.82600
N920        N  0.23420948  0.39025907  0.01352400    -0.78100
C921        C  0.22743622  0.39786004  0.72665299     0.82700
N922        N  0.20676573  0.40639677  0.72838409    -0.79800
C923        C  0.19285508  0.63432920  0.99775215     0.80100
N924        N  0.20538511  0.64896373  0.95142922    -0.78200
C925        C  0.22666207  0.67892167  0.94949914     0.82600
N926        N  0.23642138  0.69405348  0.99408203    -0.78100
C927        C  0.22610995  0.67983417  0.70656047     0.82700
N928        N  0.20449554  0.65009682  0.70823028    -0.79800
C929        C  0.92291086  0.25342886  0.99893456     0.80100
N930        N  0.91297040  0.23819270  0.95379053    -0.78200
C931        C  0.89705417  0.20736204  0.95420055     0.82600
N932        N  0.88996007  0.19177794  0.99996576    -0.78100
C933        C  0.89646371  0.20788187  0.71360144     0.82700
N934        N  0.91197780  0.23857327  0.71385190    -0.79800
C935        C  0.90551044  0.47762600  0.01759641     0.80100
N936        N  0.89523947  0.48263993  0.97278226    -0.78200
C937        C  0.87557793  0.49245018  0.97394675     0.82600
N938        N  0.86556248  0.49678962  0.01994313    -0.78100
C939        C  0.87635559  0.49248704  0.73134830     0.82700
N940        N  0.89673634  0.48343662  0.72988067    -0.79800
C941        C  0.11573243  0.45820444  0.00097181    -0.10900
C942        C  0.12926965  0.48963098  0.00383965    -0.04800
C943        C  0.11230939  0.50366931  0.00597177    -0.10900
C944        C  0.08064583  0.48564646  0.00372783     0.10000
C945        C  0.06662644  0.45367990  0.00004391    -0.02700
C946        C  0.08422618  0.43992938  0.99910483     0.09800
C947        C  0.06993402  0.40824422  0.99624750    -0.12700
C948        C  0.03891795  0.39033878  0.99422698    -0.12700
C949        C  0.02099830  0.40343040  0.99374461     0.09800
C950        C  0.03492456  0.43536055  0.99757144    -0.02700
C951        C  0.06263059  0.49863956  0.00544430    -0.12800
C952        C  0.03152448  0.48065645  0.00330758    -0.12800
C953        C  0.01720747  0.44896929  0.99969057     0.07000
C954        C  0.98561679  0.43049893  0.99819184    -0.10900
C955        C  0.97226179  0.39911441  0.99375680    -0.04800
C956        C  0.98945559  0.38536500  0.99052945    -0.10900
H957        H  0.08262197  0.39693850  0.99535622     0.07300
H958        H  0.02911404  0.36605620  0.99245325     0.07300
H959        H  0.07244301  0.52284021  0.00865926     0.07500
H960        H  0.01878913  0.49192593  0.00441938     0.07500
H961        H  0.15351605  0.50343300  0.00485004     0.03900
H962        H  0.94800807  0.38506549  0.99372966     0.03900
O963        O  0.48214700  0.18669622  0.88649858    -0.73000
O964        O  0.48166856  0.13146291  0.77677266    -0.74000
O965        O  0.48254421  0.13208794  0.88841019    -0.62600
O966        O  0.48146319  0.18568473  0.77499693    -0.71000
O967        O  0.53130686  0.21209883  0.77198959    -0.70600
O968        O  0.53235049  0.15791744  0.88344695    -0.61800
O969        O  0.53152314  0.15753744  0.77322533    -0.74300
O970        O  0.53197534  0.21278041  0.88240247    -0.73100
Cu971      Cu  0.48018186  0.15805080  0.83187271     1.04600
Cu972      Cu  0.53349667  0.18598193  0.82768583     1.04300
C973        C  0.50717283  0.20792033  0.90253392     0.93200
C974        C  0.50655367  0.13662725  0.75654313     0.92300
C975        C  0.50770718  0.13710150  0.90446166     0.84500
C976        C  0.50628616  0.20659349  0.75459767     0.90700
O977        O  0.84044498  0.46770488  0.79967547    -0.73000
O978        O  0.78604279  0.46815460  0.91219739    -0.74000
O979        O  0.78642147  0.46829434  0.80181425    -0.62600
O980        O  0.84004058  0.46792464  0.90997159    -0.71000
O981        O  0.86582115  0.51828996  0.90864140    -0.70600
O982        O  0.81248695  0.51864925  0.79963477    -0.61800
O983        O  0.81210577  0.51849800  0.91111900    -0.74300
O984        O  0.86613096  0.51803836  0.79714906    -0.73100
Cu985      Cu  0.81233003  0.46627512  0.85598741     1.04600
Cu986      Cu  0.84005211  0.52015056  0.85404400     1.04300
C987        C  0.86116873  0.49278630  0.77957841     0.93200
C988        C  0.79123186  0.49327157  0.93060641     0.92300
C989        C  0.79173713  0.49354653  0.78253067     0.84500
C990        C  0.86058955  0.49300387  0.92752343     0.90700
O991        O  0.65559044  0.77649455  0.76357033    -0.73000
O992        O  0.65109360  0.72003915  0.87704243    -0.74000
O993        O  0.64913166  0.71887726  0.76544029    -0.62600
O994        O  0.65740252  0.77740867  0.87598863    -0.71000
O995        O  0.60781132  0.75597880  0.87940395    -0.70600
O996        O  0.59955193  0.69730699  0.77150683    -0.61800
O997        O  0.60147590  0.69841716  0.88130110    -0.74300
O998        O  0.60604962  0.75511968  0.76990785    -0.73100
Cu999      Cu  0.65512308  0.74899259  0.82028419     1.04600
Cu1000     Cu  0.60206791  0.72598201  0.82569987     1.04300
C1001       C  0.63128887  0.77394439  0.74802442     0.93200
C1002       C  0.62557282  0.70109933  0.89799920     0.92300
C1003       C  0.62301624  0.69954965  0.75022238     0.84500
C1004       C  0.63355745  0.77499531  0.89615074     0.90700
C1005       C  0.37027749  0.40994208  0.00866307     0.80100
N1006       N  0.35560989  0.40530828  0.96345035    -0.78200
C1007       C  0.32616385  0.39654049  0.96427940     0.82600
N1008       N  0.31145826  0.39301392  0.01003170    -0.78100
C1009       C  0.32850496  0.40207364  0.72037362     0.82700
N1010       N  0.35805792  0.41127171  0.71827535    -0.79800
C1011       C  0.60133429  0.63688245  0.65892053     0.80100
N1012       N  0.60802284  0.65241193  0.70407594    -0.78200
C1013       C  0.61985266  0.68286962  0.70310539     0.82600
N1014       N  0.62437456  0.69772719  0.65732726    -0.78100
C1015       C  0.62389442  0.68482023  0.94557289     0.82700
N1016       N  0.61070798  0.65424271  0.94692616    -0.79800
C1017       C  0.51697159  0.26629319  0.66034895     0.80100
N1018       N  0.51460538  0.25158781  0.70589123    -0.78200
C1019       C  0.50627439  0.22196151  0.70686957     0.82600
N1020       N  0.50149184  0.20712331  0.66192910    -0.78100
C1021       C  0.50765425  0.22399650  0.94924203     0.82700
N1022       N  0.51417980  0.25317575  0.94758837    -0.79800
C1023       C  0.73163740  0.48192550  0.02610414     0.80100
N1024       N  0.74657365  0.48531544  0.97992272    -0.78200
C1025       C  0.77567468  0.49283204  0.97873163     0.82600
N1026       N  0.78972098  0.49616327  0.02362403    -0.78100
C1027       C  0.77670008  0.49353633  0.73570143     0.82700
N1028       N  0.74746331  0.48565003  0.73679919    -0.79800
C1029       C  0.54576949  0.50784222  0.00919037    -0.10900
C1030       C  0.51474730  0.49214310  0.00402855    -0.04800
C1031       C  0.49846602  0.46074408  0.99884740    -0.10900
C1032       C  0.51347690  0.44444673  0.99702100     0.10000
C1033       C  0.54482509  0.45996661  0.00361239    -0.02700
C1034       C  0.56094939  0.49168961  0.01098458     0.09800
C1035       C  0.59173443  0.50639294  0.02034888    -0.12700
C1036       C  0.60654367  0.49031400  0.02122050    -0.12700
C1037       C  0.59138819  0.45927011  0.01038232     0.09800
C1038       C  0.56011411  0.44378725  0.00249217    -0.02700
C1039       C  0.49798260  0.41314182  0.98834032    -0.12800
C1040       C  0.51308254  0.39735150  0.98607243    -0.12800
C1041       C  0.54409410  0.41217052  0.99354553     0.10000
C1042       C  0.55964399  0.39631919  0.99198446    -0.10900
C1043       C  0.59054776  0.41204857  0.99900227    -0.04800
C1044       C  0.60660596  0.44318302  0.00742796    -0.10900
H1045       H  0.60454789  0.53042406  0.02766005     0.07300
H1046       H  0.63020146  0.50257937  0.02921664     0.07300
H1047       H  0.47408231  0.40067133  0.98239116     0.07500
H1048       H  0.50020786  0.37339642  0.97829794     0.07500
H1049       H  0.50309707  0.50457261  0.00363154     0.03900
H1050       H  0.60235641  0.39976880  0.99803101     0.03900
C1051       C  0.69049184  0.48234010  0.98083019    -0.05900
C1052       C  0.69982527  0.47449502  0.02610314     0.00100
C1053       C  0.67953184  0.45810410  0.73276382    -0.08500
C1054       C  0.64956040  0.45001405  0.72598174    -0.05900
C1055       C  0.63925350  0.45745600  0.01434378     0.00100
C1056       C  0.66045342  0.47353661  0.97365050    -0.08400
C1057       C  0.65125910  0.48008326  0.92193169     0.62000
H1058       H  0.70691159  0.49486352  0.94997774     0.12700
H1059       H  0.63259432  0.43723958  0.75603219     0.12700
C1060       C  0.68720486  0.44794727  0.78256797     0.62200
F1061       F  0.67619096  0.49411071  0.55248980    -0.23000
F1062       F  0.63956914  0.49680535  0.59383322    -0.20300
F1063       F  0.62967493  0.45331544  0.90075082    -0.20000
F1064       F  0.70684902  0.47289241  0.81041111    -0.20000
F1065       F  0.69855624  0.43121594  0.10597612    -0.20300
F1066       F  0.66062971  0.43093873  0.14890035    -0.23000
C1067       C  0.54113043  0.31860009  0.94721436    -0.05900
C1068       C  0.52562616  0.29897684  0.65948867     0.00100
C1069       C  0.52264885  0.31396894  0.70365426    -0.08500
C1070       C  0.53297391  0.34508981  0.69937126    -0.05900
C1071       C  0.54598166  0.36170164  0.65335964     0.00100
C1072       C  0.55080362  0.34958738  0.94379699    -0.08400
C1073       C  0.56750118  0.36669098  0.89417830     0.62000
H1074       H  0.54708621  0.30871697  0.91563761     0.12700
H1075       H  0.53222028  0.35725008  0.73288618     0.12700
C1076       C  0.50918232  0.29804430  0.75574059     0.62200
F1077       F  0.59380476  0.36632099  0.88852823    -0.23000
F1078       F  0.57443823  0.39643320  0.89267276    -0.20300
F1079       F  0.54986493  0.35251013  0.85243501    -0.20000
F1080       F  0.52847133  0.29084928  0.77897528    -0.20000
F1081       F  0.48164905  0.27211292  0.74911645    -0.20300
F1082       F  0.50446338  0.31609082  0.78940419    -0.23000
C1083       C  0.57524887  0.55566743  0.95910290    -0.05900
C1084       C  0.56234272  0.53985818  0.66869071     0.00100
C1085       C  0.56186446  0.55597871  0.71223600    -0.08500
C1086       C  0.57509612  0.58754691  0.70726985    -0.05900
C1087       C  0.58855950  0.60339162  0.66011625     0.00100
C1088       C  0.58995157  0.58731231  0.95211666    -0.08400
C1089       C  0.60433025  0.60089947  0.89908225     0.62000
H1090       H  0.57360162  0.54152075  0.92699035     0.12700
H1091       H  0.57435474  0.59996371  0.74033561     0.12700
C1092       C  0.54737491  0.53975296  0.76356089     0.62200
F1093       F  0.60621353  0.58160822  0.53131732    -0.23000
F1094       F  0.63355893  0.62527282  0.57152722    -0.20300
F1095       F  0.58901234  0.61297296  0.87576784    -0.20000
F1096       F  0.55102916  0.55980191  0.80211617    -0.20000
F1097       F  0.56298468  0.52751759  0.11821903    -0.20300
F1098       F  0.51944682  0.52446272  0.09961622    -0.23000
C1099       C  0.45100603  0.43092388  0.70259524    -0.05900
C1100       C  0.46548503  0.44552958  0.99916024     0.00100
C1101       C  0.44996464  0.44481894  0.95478635    -0.08500
C1102       C  0.41894337  0.43276771  0.95978830    -0.05900
C1103       C  0.40292931  0.42067662  0.00732557     0.00100
C1104       C  0.42022802  0.42008728  0.70944580    -0.08400
C1105       C  0.40456353  0.40348433  0.76004647     0.62000
H1106       H  0.46351505  0.42941925  0.73422065     0.12700
H1107       H  0.40710753  0.43313319  0.92620638     0.12700
C1108       C  0.46610339  0.45616827  0.90231418     0.62200
F1109       F  0.42284010  0.39758287  0.78978806    -0.23000
F1110       F  0.37917522  0.37537249  0.09455096    -0.20300
F1111       F  0.39659576  0.42084839  0.78917181    -0.20000
F1112       F  0.47964256  0.43994617  0.88887748    -0.20000
F1113       F  0.48934330  0.48848299  0.56279625    -0.20300
F1114       F  0.44665318  0.45273627  0.86375298    -0.23000
C1115       C  0.96208872  0.45344585  0.05070555    -0.05900
C1116       C  0.96573553  0.44321080  0.00249400     0.00100
C1117       C  0.95120868  0.44601048  0.62623360    -0.08500
C1118       C  0.93137618  0.45656430  0.63376880    -0.05900
C1119       C  0.92716428  0.46659902  0.01484410     0.00100
C1120       C  0.94395657  0.46624541  0.05747202    -0.08400
C1121       C  0.94420469  0.48030476  0.10920335     0.62000
H1122       H  0.97409655  0.45172443  0.08295940     0.12700
H1123       H  0.91671458  0.45419225  0.60284509     0.12700
C1124       C  0.95453676  0.43520933  0.57318266     0.62200
F1125       F  0.96615529  0.48205104  0.14071450    -0.23000
F1126       F  0.93066343  0.48037934  0.79990176    -0.20300
F1127       F  0.95024235  0.50953527  0.10121536    -0.20000
F1128       F  0.94505766  0.40480547  0.57551967    -0.20000
F1129       F  0.98780330  0.45299920  0.89434546    -0.20300
F1130       F  0.93778006  0.43918427  0.53664978    -0.23000
C1131       C  0.95873908  0.33851821  0.70975925    -0.05900
C1132       C  0.97323655  0.35168467  0.99102857     0.00100
C1133       C  0.97020250  0.33464611  0.94644089    -0.08500
C1134       C  0.95419190  0.30278677  0.95128244    -0.05900
C1135       C  0.94028925  0.28742535  0.99859526     0.00100
C1136       C  0.94052913  0.30672576  0.71357242    -0.08400
C1137       C  0.92288154  0.29275439  0.76426973     0.62000
H1138       H  0.96145532  0.35218215  0.74322253     0.12700
H1139       H  0.95221084  0.28960608  0.91754245     0.12700
C1140       C  0.98283226  0.34994049  0.89372189     0.62200
F1141       F  0.92502936  0.31451571  0.79803512    -0.23000
F1142       F  0.93369362  0.27658720  0.78904974    -0.20300
F1143       F  0.89697294  0.27104888  0.08909626    -0.20000
F1144       F  0.01178420  0.37230930  0.56586222    -0.20000
F1145       F  0.97020554  0.36689471  0.88037172    -0.20300
F1146       F  0.97679667  0.32909909  0.85534544    -0.23000
C1147       C  0.16736462  0.58605974  0.71384182    -0.05900
C1148       C  0.16912688  0.60116891  0.00013766     0.00100
C1149       C  0.15075974  0.58535475  0.95769247    -0.08500
C1150       C  0.13169677  0.55363186  0.96191580    -0.05900
C1151       C  0.12905499  0.53740837  0.00746916     0.00100
C1152       C  0.14798511  0.55461995  0.72022374    -0.08400
C1153       C  0.14467627  0.53952845  0.77283266     0.62000
H1154       H  0.18106683  0.59855348  0.74584815     0.12700
H1155       H  0.11918777  0.54097935  0.92890366     0.12700
C1156       C  0.15061689  0.60130255  0.90801463     0.62200
F1157       F  0.15460786  0.55678331  0.14264721    -0.23000
F1158       F  0.14845964  0.51620294  0.10108452    -0.20300
F1159       F  0.11461989  0.52072355  0.78628216    -0.20000
F1160       F  0.17657666  0.61023277  0.87873431    -0.20000
F1161       F  0.14422464  0.62388912  0.59119783    -0.20300
F1162       F  0.12357733  0.58026103  0.54931588    -0.23000
C1163       C  0.17081629  0.43335138  0.96377781    -0.05900
C1164       C  0.17287194  0.42064730  0.01106410     0.00100
C1165       C  0.15433645  0.41690848  0.72769397    -0.08500
C1166       C  0.13603200  0.42956592  0.72422973    -0.05900
C1167       C  0.13518126  0.44500759  0.00255188     0.00100
C1168       C  0.15165420  0.44484594  0.95846611    -0.08400
C1169       C  0.14821324  0.45598281  0.90588125     0.62000
H1170       H  0.18436997  0.43428907  0.93051123     0.12700
H1171       H  0.12177937  0.42796287  0.75694133     0.12700
C1172       C  0.15199553  0.39905543  0.77664772     0.62200
F1173       F  0.15765515  0.48641247  0.90743742    -0.23000
F1174       F  0.12266139  0.44753576  0.56922254    -0.20300
F1175       F  0.16486620  0.45223578  0.86725255    -0.20000
F1176       F  0.17787212  0.41474949  0.80426524    -0.20000
F1177       F  0.14621056  0.37287056  0.09295516    -0.20300
F1178       F  0.12816488  0.39412031  0.80896162    -0.23000
C1179       C  0.66549037  0.04650688  0.71049394    -0.05900
C1180       C  0.65216089  0.03165919  0.66487248     0.00100
C1181       C  0.67109851  0.03085910  0.96182151    -0.08500
C1182       C  0.70221511  0.04538642  0.96769664    -0.05900
C1183       C  0.71552432  0.06362438  0.67332238     0.00100
C1184       C  0.69689561  0.06313235  0.71532907    -0.08400
C1185       C  0.70955555  0.08068494  0.76452180     0.62000
H1186       H  0.65086660  0.04486500  0.74258324     0.12700
H1187       H  0.71575409  0.04400358  0.93646454     0.12700
C1188       C  0.65897676  0.01610859  0.91016266     0.62200
F1189       F  0.73242951  0.11396349  0.08072182    -0.23000
F1190       F  0.72498541  0.07381258  0.12935119    -0.20300
F1191       F  0.68756787  0.08079254  0.79569134    -0.20000
F1192       F  0.62984948  0.00899108  0.90293344    -0.20000
F1193       F  0.64119080  0.99019834  0.57126449    -0.20300
F1194       F  0.67961068  0.03026337  0.53079383    -0.23000
C1195       C  0.54633444  0.06792796  0.61810932    -0.05900
C1196       C  0.53068903  0.06820944  0.66324084     0.00100
C1197       C  0.53036402  0.05132010  0.04323631    -0.08500
C1198       C  0.54331500  0.03310647  0.04066354    -0.05900
C1199       C  0.55714586  0.03211666  0.65834429     0.00100
C1200       C  0.55903686  0.04964551  0.61449370    -0.08400
C1201       C  0.57393788  0.04857961  0.56383784     0.62000
H1202       H  0.54901636  0.08254296  0.58550085     0.12700
H1203       H  0.54187120  0.01943024  0.07395908     0.12700
C1204       C  0.51277320  0.04957333  0.09246265     0.62200
F1205       F  0.56358769  0.01832376  0.88698797    -0.23000
F1206       F  0.60631547  0.06049406  0.90849364    -0.20300
F1207       F  0.57013699  0.06446095  0.52427111    -0.20000
F1208       F  0.48509300  0.04514958  0.08015998    -0.20000
F1209       F  0.51980519  0.06785292  0.78449614    -0.20300
F1210       F  0.49905439  0.01761273  0.78072100    -0.23000
C1211       C  0.46144541  0.85036495  0.68598420    -0.05900
C1212       C  0.47474115  0.86683276  0.63979086     0.00100
C1213       C  0.45733749  0.86455119  0.93617907    -0.08500
C1214       C  0.42587047  0.84575667  0.94054214    -0.05900
C1215       C  0.41178047  0.82597718  0.64927041     0.00100
C1216       C  0.43050749  0.82915325  0.69123048    -0.08400
C1217       C  0.41886544  0.80966570  0.74064390     0.62000
H1218       H  0.47594435  0.85384760  0.71791483     0.12700
H1219       H  0.41260544  0.84469136  0.90804773     0.12700
C1220       C  0.47157468  0.88193188  0.88552338     0.62200
F1221       F  0.43742083  0.81304726  0.11014986    -0.23000
F1222       F  0.39754495  0.78065535  0.06606524    -0.20300
F1223       F  0.40209023  0.81810754  0.77061439    -0.20000
F1224       F  0.47446389  0.91011281  0.88761755    -0.20000
F1225       F  0.48772346  0.90695845  0.54589237    -0.20300
F1226       F  0.44935712  0.86851690  0.50689236    -0.23000
C1227       C  0.59974531  0.84923560  0.94290632    -0.05900
C1228       C  0.59834911  0.83552130  0.65661402     0.00100
C1229       C  0.58076015  0.83674031  0.69877962    -0.08500
C1230       C  0.56702210  0.85388642  0.69221240    -0.05900
C1231       C  0.57013835  0.86950921  0.64577412     0.00100
C1232       C  0.58508243  0.86563609  0.93836591    -0.08400
C1233       C  0.58590643  0.88051239  0.88681374     0.62000
H1234       H  0.61248403  0.84843920  0.90980562     0.12700
H1235       H  0.55360917  0.85540221  0.72348782     0.12700
C1236       C  0.57562133  0.81984853  0.75016879     0.62200
F1237       F  0.60015626  0.87368949  0.84792855    -0.23000
F1238       F  0.60604483  0.91623613  0.56019881    -0.20300
F1239       F  0.55697937  0.87051230  0.87194788    -0.20000
F1240       F  0.55587811  0.82272214  0.78320330    -0.20000
F1241       F  0.60280248  0.82874403  0.10880097    -0.20300
F1242       F  0.56354015  0.78929949  0.74172174    -0.23000
loop_ 
_geom_bond_atom_site_label_1 
_geom_bond_atom_site_label_2 
_geom_bond_distance 
_geom_bond_site_symmetry_2 
_ccdc_geom_bond_type 
O1           Cu9   2.007       .  S
O1           C11   1.276       .  A
O2           Cu9   2.006       .  S
O2           C12   1.276       .  A
O3           Cu9   1.995       .  S
O3           C13   1.276       .  A
O4           Cu9   1.996       .  S
O4           C14   1.276       .  A
O5          Cu10   2.017       .  S
O5           C14   1.277       .  A
O6          Cu10   2.018       .  S
O6           C13   1.277       .  A
O7          Cu10   2.039       .  S
O7           C12   1.281       .  A
O8          Cu10   2.037       .  S
O8           C11   1.281       .  A
Cu9         Cu10   2.376       .  S
C11         C103   1.471       .  S
C12          C35   1.471       .  S
C13          C37   1.459       .  S
C14         C105   1.459       .  S
C15         C400   1.497       .  S
C15          N20   1.358   1_556  A
C15         N844   1.361       .  A
N16          C17   1.358       .  A
N16         C429   1.363       .  A
C17         C176   1.461       .  S
C17         N432   1.356       .  A
N18          C19   1.356   1_556  A
N18         C845   1.357       .  A
C19         C173   1.462       .  S
C19          N20   1.356       .  A
C21         C387   1.501       .  S
C21          N22   1.360   1_556  A
C21         N854   1.368       .  A
N22          C23   1.354       .  A
C23          C86   1.458       .  S
C23          N24   1.349   1_554  A
N24         C853   1.352       .  A
C25          C87   1.464       .  S
C25          N26   1.361       .  A
C25         N438   1.354       .  A
N26         C435   1.368       .  A
C27         C368   1.502       .  S
C27          N28   1.362   1_556  A
C27         N860   1.369       .  A
N28          C29   1.356       .  A
C29         C146   1.458       .  S
C29          N30   1.350   1_554  A
N30         C859   1.351       .  A
C31         C147   1.464       .  S
C31          N32   1.361       .  A
C31         N444   1.352       .  A
N32         C441   1.368       .  A
C33         C355   1.500       .  S
C33          N34   1.364       .  A
C33         N866   1.361   1_554  A
N34          C35   1.362       .  A
C35          N36   1.357       .  A
N36         C865   1.356   1_554  A
C37          N38   1.355       .  A
C37         N450   1.355       .  A
N38         C447   1.361       .  A
C39         C384   1.489       .  S
C39          C40   1.402       .  A
C39          C44   1.418       .  A
C40          C41   1.398       .  A
C40          H59   1.085       .  S
C41         C403   1.485       .  S
C41          C42   1.414       .  A
C42          C43   1.418       .  A
C42          C49   1.405       .  A
C43          C44   1.420       .  A
C43          C48   1.423       .  A
C44          C45   1.406       .  A
C45          C46   1.395       .  A
C45          H55   1.081       .  S
C46          C47   1.407       .  A
C46          H56   1.083       .  S
C47          C48   1.419       .  A
C47          C54   1.418   1_565  A
C48          C51   1.419   1_556  A
C49          C50   1.390   1_556  A
C49          H57   1.082       .  S
C50          C51   1.406       .  A
C50          H58   1.082       .  S
C51          C52   1.417   1_565  A
C52         C352   1.491       .  S
C52          C53   1.400       .  A
C53          C54   1.401   1_554  A
C53          H60   1.085       .  S
C54         C371   1.490       .  S
O61         Cu69   2.005       .  S
O61          C71   1.276       .  A
O62         Cu69   1.998       .  S
O62          C72   1.275       .  A
O63         Cu69   1.995       .  S
O63          C73   1.275       .  A
O64         Cu69   1.989       .  S
O64          C74   1.275       .  A
O65         Cu70   1.996       .  S
O65          C74   1.274       .  A
O66         Cu70   1.994       .  S
O66          C73   1.275       .  A
O67         Cu70   2.011       .  S
O67          C72   1.277       .  A
O68         Cu70   2.016       .  S
O68          C71   1.278       .  A
Cu69        Cu70   2.381       .  S
C71          C93   1.460       .  S
C72         C179   1.455       .  S
C73         C181   1.448       .  S
C74          C91   1.446       .  S
O75         Cu83   2.002       .  S
O75          C85   1.276       .  A
O76         Cu83   2.002       .  S
O76          C86   1.276       .  A
O77         Cu83   2.007       .  S
O77          C87   1.276       .  A
O78         Cu83   2.006       .  S
O78          C88   1.276       .  A
O79         Cu84   2.022       .  S
O79          C88   1.279       .  A
O80         Cu84   2.020       .  S
O80          C87   1.279       .  A
O81         Cu84   2.013       .  S
O81          C86   1.277       .  A
O82         Cu84   2.009       .  S
O82          C85   1.277       .  A
Cu83        Cu84   2.378       .  S
C85          C97   1.457       .  S
C88          C99   1.463       .  S
C89         C336   1.485       .  S
C89          N90   1.359       .  A
C89         N508   1.360       .  A
N90          C91   1.350       .  A
C91          N92   1.351       .  A
N92         C507   1.352       .  A
C93          N94   1.358       .  A
C93         N920   1.352       .  A
N94         C917   1.364       .  A
C95         C320   1.499       .  S
C95          N96   1.360       .  A
C95         N514   1.366       .  A
N96          C97   1.355       .  A
C97          N98   1.351       .  A
N98         C513   1.352       .  A
C99         N100   1.361       .  A
C99         N926   1.352   1_554  A
N100        C923   1.368   1_554  A
C101        C307   1.505       .  S
C101        N102   1.368       .  A
C101        N520   1.358       .  A
N102        C103   1.364       .  A
C103        N104   1.356       .  A
N104        C519   1.355       .  A
C105        N106   1.354       .  A
C105        N932   1.353   1_554  A
N106        C929   1.358   1_554  A
C107        C291   1.499       .  S
C107        N108   1.364       .  A
C107        N526   1.366       .  A
N108        C109   1.355       .  A
C109        C162   1.456       .  S
C109        N110   1.351       .  A
N110        C525   1.352       .  A
C111        C159   1.459       .  S
C111        N112   1.359       .  A
C111        N938   1.351       .  A
N112        C935   1.364       .  A
C113        C339   1.471       .  S
C113        C114   1.393       .  A
C113        C118   1.409       .  A
C114        C115   1.394       .  A
C114        H133   1.085       .  S
C115        C323   1.486       .  S
C115        C116   1.419       .  A
C116        C117   1.422       .  A
C116        C123   1.404       .  A
C117        C118   1.415       .  A
C117        C122   1.420       .  A
C118        C119   1.406       .  A
C119        C120   1.389       .  A
C119        H129   1.082       .  S
C120        C121   1.404       .  A
C120        H130   1.083       .  S
C121        C122   1.422       .  A
C121        C128   1.414   1_455  A
C122        C125   1.417       .  A
C123        C124   1.394       .  A
C123        H131   1.082       .  S
C124        C125   1.409       .  A
C124        H132   1.082       .  S
C125        C126   1.417   1_455  A
C126        C288   1.486       .  S
C126        C127   1.400       .  A
C127        C128   1.398       .  A
C127        H134   1.084       .  S
C128        C304   1.490       .  S
O135       Cu143   2.011       .  S
O135        C145   1.277       .  A
O136       Cu143   2.008       .  S
O136        C146   1.276       .  A
O137       Cu143   2.017       .  S
O137        C147   1.278       .  A
O138       Cu143   2.012       .  S
O138        C148   1.277       .  A
O139       Cu144   2.010       .  S
O139        C148   1.277       .  A
O140       Cu144   2.013       .  S
O140        C147   1.277       .  A
O141       Cu144   2.009       .  S
O141        C146   1.277       .  A
O142       Cu144   2.014       .  S
O142        C145   1.277       .  A
Cu143      Cu144   2.378       .  S
C145        C193   1.461       .  S
C148        C191   1.461       .  S
O149       Cu157   2.006       .  S
O149        C159   1.276       .  A
O150       Cu157   2.004       .  S
O150        C160   1.276       .  A
O151       Cu157   2.008       .  S
O151        C161   1.277       .  A
O152       Cu157   2.004       .  S
O152        C162   1.277       .  A
O153       Cu158   2.007       .  S
O153        C162   1.276       .  A
O154       Cu158   2.004       .  S
O154        C161   1.276       .  A
O155       Cu158   2.008       .  S
O155        C160   1.277       .  A
O156       Cu158   2.012       .  S
O156        C159   1.277       .  A
Cu157      Cu158   2.379       .  S
C160        C197   1.456       .  S
C161        C199   1.456       .  S
O163       Cu171   2.026       .  S
O163        C173   1.279       .  A
O164       Cu171   2.017       .  S
O164        C174   1.278       .  A
O165       Cu171   2.013       .  S
O165        C175   1.277       .  A
O166       Cu171   2.018       .  S
O166        C176   1.278       .  A
O167       Cu172   2.002       .  S
O167        C176   1.276       .  A
O168       Cu172   2.001       .  S
O168        C175   1.276       .  A
O169       Cu172   1.999       .  S
O169        C174   1.275       .  A
O170       Cu172   1.994       .  S
O170        C173   1.275       .  A
Cu171      Cu172   2.378       .  S
C174        C187   1.458       .  S
C175        C185   1.458       .  S
C177        C275   1.488       .  S
C177        N178   1.364       .  A
C177        N596   1.362       .  A
N178        C179   1.355       .  A
C179        N180   1.351       .  A
N180        C595   1.351       .  A
C181        N182   1.353       .  A
C181       N1008   1.349       .  A
N182       C1005   1.359       .  A
C183        C259   1.498       .  S
C183        N184   1.364   1_556  A
C183       N1016   1.361       .  A
N184        C185   1.356       .  A
C185        N186   1.352   1_554  A
N186       C1015   1.352       .  A
C187        N188   1.356       .  A
C187        N600   1.351       .  A
N188        C597   1.362       .  A
C189        C240   1.495       .  S
C189        N190   1.364   1_556  A
C189       N1022   1.367       .  A
N190        C191   1.358       .  A
C191        N192   1.350   1_554  A
N192       C1021   1.351       .  A
C193        N194   1.362       .  A
C193        N606   1.351       .  A
N194        C603   1.369       .  A
C195        C224   1.495       .  S
C195        N196   1.366       .  A
C195        N614   1.361       .  A
N196        C197   1.357       .  A
C197        N198   1.349       .  A
N198        C613   1.349       .  A
C199        N200   1.357       .  A
C199       N1026   1.351       .  A
N200       C1023   1.362       .  A
C201        C670   1.478       .  S
C201        C202   1.392       .  A
C201        C206   1.412       .  A
C202        C203   1.395       .  A
C202        H221   1.084       .  S
C203        C272   1.480       .  S
C203        C204   1.416       .  A
C204        C205   1.419       .  A
C204        C211   1.406       .  A
C205        C206   1.419       .  A
C205        C210   1.419       .  A
C206        C207   1.405       .  A
C207        C208   1.391       .  A
C207        H217   1.083       .  S
C208        C209   1.405       .  A
C208        H218   1.082       .  S
C209        C210   1.419       .  A
C209        C216   1.412       .  A
C210        C213   1.420       .  A
C211        C212   1.395       .  A
C211        H219   1.082       .  S
C212        C213   1.406       .  A
C212        H220   1.083       .  S
C213        C214   1.415       .  A
C214        C657   1.485       .  S
C214        C215   1.397       .  A
C215        C216   1.399       .  A
C215        H222   1.085       .  S
C216        C227   1.483       .  S
C223        C224   1.408       .  A
C223        C228   1.404       .  A
C223        H230   1.083       .  S
C224        C639   1.428       .  A
C225        C226   1.407       .  A
C225       C1052   1.428       .  A
C225        C232   1.522       .  S
C226       C1055   1.400       .  A
C226        H231   1.084       .  S
C227        C228   1.415       .  A
C227        C640   1.401       .  A
C228        C229   1.523       .  S
C229        F235   1.383       .  S
C229        F647   1.384       .  S
C229        F648   1.381       .  S
C232        F236   1.382       .  S
C232       F1065   1.383       .  S
C232       F1066   1.386       .  S
F233       C1057   1.384       .  S
F234       C1057   1.380       .  S
F237        C646   1.383       .  S
F238        C646   1.385       .  S
C239        C244   1.407       .  A
C239        C654   1.411       .  A
C239        H246   1.082       .  S
C240        C241   1.425   1_556  A
C240       C1067   1.408       .  A
C241        C242   1.407       .  A
C241        C248   1.519       .  S
C242        C243   1.401   1_554  A
C242        H247   1.084       .  S
C243       C1042   1.486       .  S
C243       C1072   1.417       .  A
C244        C657   1.412       .  A
C244        C245   1.519       .  S
C245        F249   1.382       .  S
C245        F250   1.383       .  S
C245        F251   1.384       .  S
C248        F252   1.383       .  S
C248        F253   1.384       .  S
C248        F254   1.385       .  S
C255        C260   1.405       .  A
C255        C670   1.398       .  A
C255        H262   1.083       .  S
C256       C1029   1.481       .  S
C256        C257   1.409       .  A
C256       C1083   1.398   1_554  A
C257        C258   1.405       .  A
C257        C264   1.519       .  S
C258        C259   1.413   1_554  A
C258        H263   1.081       .  S
C259       C1088   1.429       .  A
C260        C673   1.427       .  A
C260        C261   1.522       .  S
C261        F267   1.383       .  S
C261        F679   1.385       .  S
C261        F680   1.384       .  S
C264        F268   1.384       .  S
C264       F1097   1.383       .  S
C264       F1098   1.382       .  S
F265       C1089   1.385       .  S
F266       C1089   1.383       .  S
F269        C678   1.383       .  S
F270        C678   1.382       .  S
C271        C276   1.405       .  A
C271       C1100   1.397   1_554  A
C271        H278   1.084       .  S
C272        C273   1.414       .  A
C272        C685   1.400       .  A
C273        C274   1.404       .  A
C273        C280   1.522       .  S
C274        C275   1.409       .  A
C274        H279   1.082       .  S
C275        C690   1.424       .  A
C276       C1103   1.429       .  A
C276        C277   1.523       .  S
C277        F281   1.385       .  S
C277        F283   1.383       .  S
C277       F1110   1.384       .  S
C280        F284   1.383       .  S
C280        F286   1.385       .  S
C280        F699   1.381       .  S
F282        C691   1.383       .  S
F285       C1108   1.382       .  S
C287        C288   1.401       .  A
C287        C292   1.408       .  A
C287        H294   1.083       .  S
C288        C703   1.413       .  A
C289        C290   1.404       .  A
C289       C1116   1.409   1_556  A
C289        C296   1.520       .  S
C290       C1119   1.413   1_556  A
C290        H295   1.081       .  S
C291        C292   1.426       .  A
C291        C704   1.412       .  A
C292        C293   1.520       .  S
C293        F297   1.385       .  S
C293        F299   1.384       .  S
C293        F712   1.382       .  S
C296        F300   1.381       .  S
C296        F302   1.383       .  S
C296       F1129   1.384       .  S
F298       C1121   1.383       .  S
F301        C710   1.384       .  S
C303        C308   1.406       .  A
C303       C1132   1.397   1_554  A
C303        H310   1.083       .  S
C304        C305   1.414       .  A
C304        C717   1.398       .  A
C305        C306   1.410       .  A
C305        C312   1.520       .  S
C306        C307   1.411       .  A
C306        H311   1.082       .  S
C307        C722   1.433       .  A
C308       C1135   1.431   1_554  A
C308        C309   1.523       .  S
C309        F313   1.385       .  S
C309        F314   1.383       .  S
C309       F1143   1.383       .  S
C312        F317   1.383       .  S
C312        F318   1.383       .  S
C312        F730   1.380   1_655  S
F315        C723   1.384       .  S
F316       C1140   1.380   1_455  S
C319        C324   1.411       .  A
C319       C1148   1.413       .  A
C319        H326   1.082       .  S
C320        C321   1.429       .  A
C320        C733   1.410       .  A
C321        C322   1.408       .  A
C321        C328   1.521       .  S
C322        C323   1.399       .  A
C322        H327   1.084       .  S
C323        C738   1.415       .  A
C324       C1151   1.414       .  A
C324        C325   1.521       .  S
C325        F331   1.384       .  S
C325       F1157   1.383       .  S
C325       F1158   1.381       .  S
C328        F332   1.383       .  S
C328        F747   1.384       .  S
C328        F748   1.385       .  S
F329        C739   1.384       .  S
F330        C739   1.381       .  S
F333       C1156   1.384       .  S
F334       C1156   1.385       .  S
C335        C336   1.411       .  A
C335        C340   1.400       .  A
C335        H342   1.082       .  S
C336        C751   1.424       .  A
C337        C338   1.408       .  A
C337       C1164   1.427       .  A
C337        C344   1.521       .  S
C338       C1167   1.399       .  A
C338        H343   1.084       .  S
C339        C340   1.408       .  A
C339        C752   1.398       .  A
C340        C341   1.521       .  S
C341        F345   1.382       .  S
C341        F347   1.383       .  S
C341        F760   1.383       .  S
C344        F348   1.382       .  S
C344        F350   1.385       .  S
C344       F1177   1.384       .  S
F346       C1169   1.384       .  S
F349        C758   1.384       .  S
C351        C352   1.403       .  A
C351        C356   1.412       .  A
C351        H358   1.083       .  S
C352       C1181   1.417   1_554  A
C353        C354   1.405       .  A
C353        C766   1.414       .  A
C353        C360   1.522       .  S
C354        C769   1.411       .  A
C354        H359   1.082       .  S
C355        C356   1.426       .  A
C355       C1182   1.410   1_554  A
C356        C357   1.520       .  S
C357        F363   1.385       .  S
C357       F1189   1.384       .  S
C357       F1190   1.382       .  S
C360        F364   1.383       .  S
C360        F779   1.380   1_545  S
C360        F780   1.383       .  S
F361        C771   1.384       .  S
F362        C771   1.382       .  S
F365       C1188   1.382   1_565  S
F366       C1188   1.382       .  S
C367        C368   1.410       .  A
C367        C372   1.408       .  A
C367        H374   1.082       .  S
C368       C1197   1.430   1_556  A
C369        C370   1.407       .  A
C369        C782   1.431       .  A
C369        C376   1.522       .  S
C370        C785   1.397       .  A
C370        H375   1.084       .  S
C371        C372   1.414       .  A
C371       C1198   1.399   1_556  A
C372        C373   1.520       .  S
C373        F379   1.385       .  S
C373       F1205   1.383       .  S
C373       F1206   1.382       .  S
C376        F380   1.383       .  S
C376        F795   1.383       .  S
C376        F796   1.386       .  S
F377        C787   1.383       .  S
F378        C787   1.382       .  S
F381       C1204   1.383       .  S
F382       C1204   1.385       .  S
C383        C384   1.399   1_554  A
C383        C388   1.407       .  A
C383        H390   1.084       .  S
C384       C1213   1.416       .  A
C385        C386   1.411       .  A
C385        C798   1.414       .  A
C385        C392   1.520       .  S
C386        C801   1.413       .  A
C386        H391   1.082       .  S
C387        C388   1.430   1_556  A
C387       C1214   1.411       .  A
C388        C389   1.523       .  S
C389        F395   1.383       .  S
C389       F1221   1.385       .  S
C389       F1222   1.384       .  S
C392        F396   1.383       .  S
C392        F811   1.381       .  S
C392        F812   1.385       .  S
F393        C803   1.385       .  S
F394        C803   1.384       .  S
F397       C1220   1.384       .  S
F398       C1220   1.383       .  S
C399        C404   1.404       .  A
C399        C814   1.411       .  A
C399        H406   1.082       .  S
C400        C401   1.429   1_556  A
C400       C1227   1.411       .  A
C401        C402   1.408       .  A
C401        C408   1.522       .  S
C402        C403   1.399   1_554  A
C402        H407   1.083       .  S
C403       C1232   1.412       .  A
C404        C817   1.409       .  A
C404        C405   1.520       .  S
C405        F409   1.384       .  S
C405        F411   1.383       .  S
C405        F824   1.382       .  S
C408        F412   1.385       .  S
C408        F414   1.384       .  S
C408       F1241   1.383       .  S
F410       C1233   1.381       .  S
F413        C822   1.383       .  S
O415       Cu423   2.003       .  S
O415        C425   1.275       .  A
O416       Cu423   1.999       .  S
O416        C426   1.275       .  A
O417       Cu423   2.001       .  S
O417        C427   1.276       .  A
O418       Cu423   2.001       .  S
O418        C428   1.277       .  A
O419       Cu424   2.020       .  S
O419        C428   1.277       .  A
O420       Cu424   2.019       .  S
O420        C427   1.278       .  A
O421       Cu424   2.029       .  S
O421        C426   1.280       .  A
O422       Cu424   2.028       .  S
O422        C425   1.280       .  A
Cu423      Cu424   2.377       .  S
C425        C517   1.465       .  S
C426        C449   1.465       .  S
C427        C451   1.461       .  S
C428        C519   1.462       .  S
C429        C814   1.496       .  S
C429        N434   1.356       .  A
N430        C843   1.360       .  A
N430        C431   1.353       .  A
C431        C590   1.455       .  S
C431        N846   1.355       .  A
N432        C433   1.355       .  A
C433        C587   1.458       .  S
C433        N434   1.353       .  A
C435        C801   1.504       .  S
C435        N436   1.361       .  A
N436        C437   1.355       .  A
C437        C500   1.463       .  S
C437        N438   1.352       .  A
C439        C501   1.463       .  S
C439        N852   1.353       .  A
C439        N440   1.360       .  A
N440        C849   1.367       .  A
C441        C782   1.503       .  S
C441        N442   1.362       .  A
N442        C443   1.356       .  A
C443        C560   1.459       .  S
C443        N444   1.351       .  A
C445        C561   1.459       .  S
C445        N858   1.352       .  A
C445        N446   1.357       .  A
N446        C855   1.365       .  A
C447        C769   1.501       .  S
C447        N448   1.362       .  A
N448        C449   1.361       .  A
C449        N450   1.355       .  A
C451        N864   1.355       .  A
C451        N452   1.357       .  A
N452        C861   1.362       .  A
C453        C798   1.489       .  S
C453        C454   1.400       .  A
C453        C458   1.419       .  A
C454        C455   1.397       .  A
C454        H473   1.085       .  S
C455        C817   1.479       .  S
C455        C456   1.411       .  A
C456        C457   1.415       .  A
C456        C463   1.407       .  A
C457        C458   1.421       .  A
C457        C462   1.421       .  A
C458        C459   1.405       .  A
C459        C460   1.395       .  A
C459        H469   1.082       .  S
C460        C461   1.408       .  A
C460        H470   1.082       .  S
C461        C462   1.416       .  A
C461        C468   1.416   1_565  A
C462        C465   1.420       .  A
C463        C464   1.390       .  A
C463        H471   1.082       .  S
C464        C465   1.404       .  A
C464        H472   1.083       .  S
C465        C466   1.415   1_565  A
C466        C766   1.491       .  S
C466        C467   1.401       .  A
C467        C468   1.402       .  A
C467        H474   1.085       .  S
C468        C785   1.485       .  S
O475       Cu483   2.003       .  S
O475        C485   1.276       .  A
O476       Cu483   2.000       .  S
O476        C486   1.276       .  A
O477       Cu483   2.010       .  S
O477        C487   1.277       .  A
O478       Cu483   2.005       .  S
O478        C488   1.277       .  A
O479       Cu484   1.998       .  S
O479        C488   1.275       .  A
O480       Cu484   1.998       .  S
O480        C487   1.275       .  A
O481       Cu484   1.997       .  S
O481        C486   1.275       .  A
O482       Cu484   2.002       .  S
O482        C485   1.276       .  A
Cu483      Cu484   2.381       .  S
C485        C507   1.454       .  S
C486        C593   1.451       .  S
C487        C595   1.455       .  S
C488        C505   1.454       .  S
O489       Cu497   2.011       .  S
O489        C499   1.277       .  A
O490       Cu497   2.009       .  S
O490        C500   1.277       .  A
O491       Cu497   2.006       .  S
O491        C501   1.276       .  A
O492       Cu497   2.001       .  S
O492        C502   1.276       .  A
O493       Cu498   2.017       .  S
O493        C502   1.278       .  A
O494       Cu498   2.021       .  S
O494        C501   1.279       .  A
O495       Cu498   2.019       .  S
O495        C500   1.277       .  A
O496       Cu498   2.017       .  S
O496        C499   1.278       .  A
Cu497      Cu498   2.377       .  S
C499        C511   1.463       .  S
C502        C513   1.459       .  S
C503        C750   1.489       .  S
C503        N504   1.362       .  A
C503        N922   1.360       .  A
N504        C505   1.352       .  A
C505        N506   1.352       .  A
N506        C921   1.352       .  A
C507        N508   1.355       .  A
C509        C734   1.501       .  S
C509        N510   1.365       .  A
C509        N928   1.365       .  A
N510        C511   1.361       .  A
C511        N512   1.352       .  A
N512        C927   1.351       .  A
C513        N514   1.359       .  A
C515        C721   1.505       .  S
C515        N516   1.367       .  A
C515        N934   1.359       .  A
N516        C517   1.362       .  A
C517        N518   1.354       .  A
N518        C933   1.353       .  A
C519        N520   1.354       .  A
C521        C705   1.492       .  S
C521        N522   1.361       .  A
C521        N940   1.365       .  A
N522        C523   1.351       .  A
C523        C576   1.451       .  S
C523        N524   1.351       .  A
N524        C939   1.352       .  A
C525        C573   1.463       .  S
C525        N526   1.360       .  A
C527        C753   1.478       .  S
C527        C528   1.396       .  A
C527        C532   1.412       .  A
C528        C529   1.396       .  A
C528        H547   1.085       .  S
C529        C737   1.490       .  S
C529        C530   1.417       .  A
C530        C531   1.422       .  A
C530        C537   1.404       .  A
C531        C532   1.416       .  A
C531        C536   1.421       .  A
C532        C533   1.407       .  A
C533        C534   1.392       .  A
C533        H543   1.082       .  S
C534        C535   1.405       .  A
C534        H544   1.083       .  S
C535        C536   1.422       .  A
C535        C542   1.417   1_455  A
C536        C539   1.417       .  A
C537        C538   1.391       .  A
C537        H545   1.081       .  S
C538        C539   1.407       .  A
C538        H546   1.082       .  S
C539        C540   1.415   1_455  A
C540        C702   1.485       .  S
C540        C541   1.400       .  A
C541        C542   1.398       .  A
C541        H548   1.085       .  S
C542        C718   1.490       .  S
O549       Cu557   2.017       .  S
O549        C559   1.278       .  A
O550       Cu557   2.017       .  S
O550        C560   1.278       .  A
O551       Cu557   2.013       .  S
O551        C561   1.277       .  A
O552       Cu557   2.007       .  S
O552        C562   1.276       .  A
O553       Cu558   2.000       .  S
O553        C562   1.276       .  A
O554       Cu558   2.004       .  S
O554        C561   1.276       .  A
O555       Cu558   2.002       .  S
O555        C560   1.276       .  A
O556       Cu558   2.003       .  S
O556        C559   1.276       .  A
Cu557      Cu558   2.379       .  S
C559        C607   1.460       .  S
C562        C605   1.454       .  S
O563       Cu571   2.008       .  S
O563        C573   1.276       .  A
O564       Cu571   2.003       .  S
O564        C574   1.276       .  A
O565       Cu571   2.002       .  S
O565        C575   1.276       .  A
O566       Cu571   1.997       .  S
O566        C576   1.276       .  A
O567       Cu572   2.001       .  S
O567        C576   1.275       .  A
O568       Cu572   2.001       .  S
O568        C575   1.275       .  A
O569       Cu572   2.014       .  S
O569        C574   1.278       .  A
O570       Cu572   2.021       .  S
O570        C573   1.279       .  A
Cu571      Cu572   2.379       .  S
C574        C611   1.458       .  S
C575        C613   1.452       .  S
O577       Cu585   2.014       .  S
O577        C587   1.277       .  A
O578       Cu585   2.004       .  S
O578        C588   1.276       .  A
O579       Cu585   2.002       .  S
O579        C589   1.276       .  A
O580       Cu585   2.010       .  S
O580        C590   1.277       .  A
O581       Cu586   1.994       .  S
O581        C590   1.276       .  A
O582       Cu586   1.996       .  S
O582        C589   1.275       .  A
O583       Cu586   2.001       .  S
O583        C588   1.276       .  A
O584       Cu586   1.998       .  S
O584        C587   1.277       .  A
Cu585      Cu586   2.380       .  S
C588        C601   1.454       .  S
C589        C599   1.451       .  S
C591        C689   1.492       .  S
C591        N592   1.362       .  A
C591       N1010   1.362       .  A
N592        C593   1.353       .  A
C593        N594   1.352       .  A
N594       C1009   1.352       .  A
C595        N596   1.355       .  A
C597        C673   1.493       .  S
C597        N598   1.363       .  A
N598        C599   1.355       .  A
C599        N600   1.352       .  A
C601       N1014   1.350       .  A
C601        N602   1.354       .  A
N602       C1011   1.360       .  A
C603        C654   1.502       .  S
C603        N604   1.360       .  A
N604        C605   1.354       .  A
C605        N606   1.349       .  A
C607       N1020   1.352       .  A
C607        N608   1.361       .  A
N608       C1017   1.367       .  A
C609        C638   1.496       .  S
C609        N610   1.366       .  A
C609       N1028   1.362       .  A
N610        C611   1.356       .  A
C611        N612   1.351       .  A
N612       C1027   1.351       .  A
C613        N614   1.356       .  A
C615       C1084   1.479       .  S
C615        C616   1.393       .  A
C615        C620   1.412       .  A
C616        C617   1.395       .  A
C616        H635   1.085       .  S
C617        C686   1.476       .  S
C617        C618   1.414       .  A
C618        C619   1.417       .  A
C618        C625   1.406       .  A
C619        C620   1.419       .  A
C619        C624   1.418       .  A
C620        C621   1.404       .  A
C621        C622   1.392       .  A
C621        H631   1.083       .  S
C622        C623   1.406       .  A
C622        H632   1.083       .  S
C623        C624   1.418       .  A
C623        C630   1.412       .  A
C624        C627   1.420       .  A
C625        C626   1.395       .  A
C625        H633   1.083       .  S
C626        C627   1.406       .  A
C626        H634   1.083       .  S
C627        C628   1.415       .  A
C628       C1071   1.484       .  S
C628        C629   1.396       .  A
C629        C630   1.396       .  A
C629        H636   1.085       .  S
C630        C641   1.481       .  S
C637        C638   1.410       .  A
C637        C642   1.404       .  A
C637        H644   1.082       .  S
C638       C1053   1.428       .  A
C639        C640   1.408       .  A
C639        C646   1.522       .  S
C640        H645   1.084       .  S
C641       C1054   1.400       .  A
C641        C642   1.412       .  A
C642        C643   1.522       .  S
C643       F1061   1.384       .  S
C643       F1062   1.380       .  S
C643        F649   1.382       .  S
C646        F650   1.383       .  S
F651       C1060   1.383       .  S
F652       C1060   1.385       .  S
C653       C1068   1.413       .  A
C653        C658   1.409       .  A
C653        H660   1.082       .  S
C654        C655   1.432       .  A
C655        C656   1.409       .  A
C655        C662   1.523       .  S
C656        C657   1.398       .  A
C656        H661   1.083       .  S
C658       C1071   1.412       .  A
C658        C659   1.519       .  S
C659        F663   1.382       .  S
C659        F664   1.383       .  S
C659        F665   1.384       .  S
C662        F666   1.383       .  S
C662        F667   1.384       .  S
C662        F668   1.385       .  S
C669       C1084   1.397       .  A
C669        C674   1.406       .  A
C669        H676   1.083       .  S
C670        C671   1.410       .  A
C671        C672   1.405       .  A
C671        C678   1.521       .  S
C672        C673   1.412       .  A
C672        H677   1.082       .  S
C674       C1087   1.430       .  A
C674        C675   1.523       .  S
C675       F1093   1.385       .  S
C675       F1094   1.383       .  S
C675        F681   1.383       .  S
C678        F682   1.384       .  S
F683       C1092   1.383       .  S
F684       C1092   1.382       .  S
C685        C690   1.405       .  A
C685        H692   1.084       .  S
C686       C1099   1.398       .  A
C686        C687   1.410       .  A
C687        C688   1.403       .  A
C687        C694   1.520       .  S
C688        C689   1.412       .  A
C688        H693   1.082       .  S
C689       C1104   1.426       .  A
C690        C691   1.521       .  S
C691        F695   1.385       .  S
C691        F697   1.383       .  S
C694        F698   1.383       .  S
C694       F1113   1.382       .  S
C694        F700   1.385       .  S
F696       C1105   1.384       .  S
C701        C702   1.404       .  A
C701        C706   1.408       .  A
C701        H708   1.083       .  S
C702       C1117   1.412       .  A
C703        C704   1.406       .  A
C703        C710   1.522       .  S
C704        H709   1.082       .  S
C705       C1118   1.411       .  A
C705        C706   1.422       .  A
C706        C707   1.520       .  S
C707        F711   1.385       .  S
C707       F1126   1.382       .  S
C707        F713   1.384       .  S
C710        F714   1.380       .  S
C710        F716   1.382       .  S
F715       C1124   1.384       .  S
C717        C722   1.408       .  A
C717        H724   1.083       .  S
C718       C1131   1.398       .  A
C718        C719   1.414       .  A
C719        C720   1.409       .  A
C719        C726   1.519       .  S
C720        C721   1.412       .  A
C720        H725   1.082       .  S
C721       C1136   1.432       .  A
C722        C723   1.523       .  S
C723        F727   1.385       .  S
C723        F728   1.383       .  S
C726       F1144   1.381   1_655  S
C726        F731   1.382       .  S
C726        F732   1.384       .  S
F729       C1137   1.384       .  S
C733        C738   1.406       .  A
C733        H740   1.082       .  S
C734       C1147   1.411       .  A
C734        C735   1.426       .  A
C735        C736   1.410       .  A
C735        C742   1.520       .  S
C736        C737   1.402       .  A
C736        H741   1.083       .  S
C737       C1152   1.413       .  A
C738        C739   1.521       .  S
C739        F745   1.383       .  S
C742        F746   1.382       .  S
C742       F1161   1.384       .  S
C742       F1162   1.385       .  S
F743       C1153   1.383       .  S
F744       C1153   1.381       .  S
C749        C750   1.409       .  A
C749        C754   1.398       .  A
C749        H756   1.082       .  S
C750       C1165   1.427       .  A
C751        C752   1.403       .  A
C751        C758   1.521       .  S
C752        H757   1.084       .  S
C753       C1166   1.401       .  A
C753        C754   1.410       .  A
C754        C755   1.521       .  S
C755        F759   1.381       .  S
C755       F1174   1.383       .  S
C755        F761   1.384       .  S
C758        F762   1.383       .  S
C758        F764   1.385       .  S
F763       C1172   1.384       .  S
C765        C766   1.402       .  A
C765        C770   1.413       .  A
C765        H772   1.083       .  S
C767       C1180   1.416       .  A
C767        C768   1.408       .  A
C767        C774   1.523       .  S
C768       C1183   1.411       .  A
C768        H773   1.082       .  S
C769        C770   1.427       .  A
C770        C771   1.521       .  S
C771        F777   1.385       .  S
C774        F778   1.383       .  S
C774       F1193   1.380   1_545  S
C774       F1194   1.383       .  S
F775       C1185   1.384       .  S
F776       C1185   1.383       .  S
C781        C782   1.413       .  A
C781        C786   1.408       .  A
C781        H788   1.082       .  S
C783       C1196   1.425       .  A
C783        C784   1.408       .  A
C783        C790   1.521       .  S
C784       C1199   1.401       .  A
C784        H789   1.084       .  S
C785        C786   1.411       .  A
C786        C787   1.519       .  S
C787        F793   1.384       .  S
C790        F794   1.384       .  S
C790       F1209   1.382       .  S
C790       F1210   1.385       .  S
F791       C1201   1.384       .  S
F792       C1201   1.381       .  S
C797        C798   1.399       .  A
C797        C802   1.407       .  A
C797        H804   1.084       .  S
C799       C1212   1.413       .  A
C799        C800   1.410       .  A
C799        C806   1.519       .  S
C800       C1215   1.413       .  A
C800        H805   1.082       .  S
C801        C802   1.430       .  A
C802        C803   1.523       .  S
C803        F809   1.383       .  S
C806        F810   1.383       .  S
C806       F1225   1.380       .  S
C806       F1226   1.384       .  S
F807       C1217   1.386       .  S
F808       C1217   1.384       .  S
C813       C1228   1.412       .  A
C813        C818   1.403       .  A
C813        H820   1.082       .  S
C814        C815   1.432       .  A
C815        C816   1.407       .  A
C815        C822   1.524       .  S
C816        C817   1.397       .  A
C816        H821   1.083       .  S
C818       C1231   1.410       .  A
C818        C819   1.522       .  S
C819        F823   1.384       .  S
C819       F1238   1.381       .  S
C819        F825   1.383       .  S
C822        F826   1.385       .  S
C822        F828   1.384       .  S
F827       C1236   1.383       .  S
O829       Cu837   2.005       .  S
O829        C839   1.276       .  A
O830       Cu837   2.006       .  S
O830        C840   1.276       .  A
O831       Cu837   1.997       .  S
O831        C841   1.276       .  A
O832       Cu837   1.998       .  S
O832        C842   1.276       .  A
O833       Cu838   2.018       .  S
O833        C842   1.278       .  A
O834       Cu838   2.022       .  S
O834        C841   1.278       .  A
O835       Cu838   2.030       .  S
O835        C840   1.279       .  A
O836       Cu838   2.022       .  S
O836        C839   1.279       .  A
Cu837      Cu838   2.377       .  S
C839        C931   1.464       .  S
C840        C863   1.468       .  S
C841        C865   1.461       .  S
C842        C933   1.460       .  S
C843       C1228   1.491       .  S
C843        N848   1.360       .  A
N844        C845   1.357       .  A
C845       C1004   1.460       .  S
N846        C847   1.355       .  A
C847       C1001   1.461       .  S
C847        N848   1.357       .  A
C849       C1215   1.502       .  S
C849        N850   1.362       .  A
N850        C851   1.358       .  A
C851        C914   1.462       .  S
C851        N852   1.352       .  A
C853        C915   1.461       .  S
C853        N854   1.363       .  A
C855       C1196   1.492       .  S
C855        N856   1.362       .  A
N856        C857   1.356       .  A
C857        C974   1.457       .  S
C857        N858   1.352       .  A
C859        C975   1.464       .  S
C859        N860   1.362       .  A
C861       C1183   1.502       .  S
C861        N862   1.363       .  A
N862        C863   1.360       .  A
C863        N864   1.356       .  A
C865        N866   1.355       .  A
C867       C1212   1.488       .  S
C867        C868   1.399       .  A
C867        C872   1.420       .  A
C868        C869   1.396       .  A
C868        H887   1.085       .  S
C869       C1231   1.475       .  S
C869        C870   1.408       .  A
C870        C871   1.414       .  A
C870        C877   1.406       .  A
C871        C872   1.421       .  A
C871        C876   1.420       .  A
C872        C873   1.405       .  A
C873        C874   1.396       .  A
C873        H883   1.082       .  S
C874        C875   1.409       .  A
C874        H884   1.083       .  S
C875        C876   1.415       .  A
C875        C882   1.417   1_565  A
C876        C879   1.420       .  A
C877        C878   1.387       .  A
C877        H885   1.082       .  S
C878        C879   1.404       .  A
C878        H886   1.083       .  S
C879        C880   1.413   1_565  A
C880       C1180   1.492       .  S
C880        C881   1.400       .  A
C881        C882   1.404       .  A
C881        H888   1.084       .  S
C882       C1199   1.484       .  S
O889       Cu897   1.998       .  S
O889        C899   1.276       .  A
O890       Cu897   2.000       .  S
O890        C900   1.276       .  A
O891       Cu897   1.997       .  S
O891        C901   1.275       .  A
O892       Cu897   1.997       .  S
O892        C902   1.275       .  A
O893       Cu898   2.018       .  S
O893        C902   1.278       .  A
O894       Cu898   2.013       .  S
O894        C901   1.278       .  A
O895       Cu898   2.006       .  S
O895        C900   1.276       .  A
O896       Cu898   2.004       .  S
O896        C899   1.276       .  A
Cu897      Cu898   2.380       .  S
C899        C921   1.453       .  S
C900       C1007   1.453       .  S
C901       C1009   1.457       .  S
C902        C919   1.457       .  S
O903       Cu911   2.015       .  S
O903        C913   1.277       .  A
O904       Cu911   2.007       .  S
O904        C914   1.276       .  A
O905       Cu911   2.012       .  S
O905        C915   1.277       .  A
O906       Cu911   2.010       .  S
O906        C916   1.277       .  A
O907       Cu912   2.009       .  S
O907        C916   1.276       .  A
O908       Cu912   2.011       .  S
O908        C915   1.277       .  A
O909       Cu912   2.017       .  S
O909        C914   1.278       .  A
O910       Cu912   2.021       .  S
O910        C913   1.279       .  A
Cu911      Cu912   2.377       .  S
C913        C925   1.466       .  S
C916        C927   1.459       .  S
C917       C1164   1.499       .  S
C917        N918   1.364   1_554  A
N918        C919   1.357       .  A
C919        N920   1.351   1_556  A
C921        N922   1.355       .  A
C923       C1148   1.507   1_556  S
C923        N924   1.365       .  A
N924        C925   1.359       .  A
C925        N926   1.351       .  A
C927        N928   1.355       .  A
C929       C1135   1.501       .  S
C929        N930   1.366       .  A
N930        C931   1.362       .  A
C931        N932   1.355       .  A
C933        N934   1.356       .  A
C935       C1119   1.501       .  S
C935        N936   1.364   1_554  A
N936        C937   1.354       .  A
C937        C990   1.454       .  S
C937        N938   1.350   1_556  A
C939        C987   1.462       .  S
C939        N940   1.360       .  A
C941       C1167   1.483       .  S
C941        C942   1.398       .  A
C941        C946   1.412   1_554  A
C942        C943   1.400       .  A
C942        H961   1.085       .  S
C943       C1151   1.492       .  S
C943        C944   1.418       .  A
C944        C945   1.422       .  A
C944        C951   1.405       .  A
C945        C946   1.417   1_554  A
C945        C950   1.421   1_554  A
C946        C947   1.406       .  A
C947        C948   1.390       .  A
C947        H957   1.082       .  S
C948        C949   1.404       .  A
C948        H958   1.083       .  S
C949        C950   1.421       .  A
C949        C956   1.415   1_455  A
C950        C953   1.417       .  A
C951        C952   1.394       .  A
C951        H959   1.082       .  S
C952        C953   1.408   1_554  A
C952        H960   1.083       .  S
C953        C954   1.415   1_455  A
C954       C1116   1.485   1_556  S
C954        C955   1.400       .  A
C955        C956   1.399       .  A
C955        H962   1.085       .  S
C956       C1132   1.488       .  S
O963       Cu971   2.014       .  S
O963        C973   1.277       .  A
O964       Cu971   2.009       .  S
O964        C974   1.277       .  A
O965       Cu971   2.021       .  S
O965        C975   1.278       .  A
O966       Cu971   2.013       .  S
O966        C976   1.277       .  A
O967       Cu972   2.007       .  S
O967        C976   1.276       .  A
O968       Cu972   2.010       .  S
O968        C975   1.277       .  A
O969       Cu972   2.004       .  S
O969        C974   1.276       .  A
O970       Cu972   2.010       .  S
O970        C973   1.277       .  A
Cu971      Cu972   2.378       .  S
C973       C1021   1.461       .  S
C976       C1019   1.460       .  S
O977       Cu985   2.010       .  S
O977        C987   1.276       .  A
O978       Cu985   2.006       .  S
O978        C988   1.276       .  A
O979       Cu985   2.005       .  S
O979        C989   1.277       .  A
O980       Cu985   2.001       .  S
O980        C990   1.276       .  A
O981       Cu986   2.005       .  S
O981        C990   1.276       .  A
O982       Cu986   2.006       .  S
O982        C989   1.276       .  A
O983       Cu986   2.014       .  S
O983        C988   1.277       .  A
O984       Cu986   2.016       .  S
O984        C987   1.278       .  A
Cu985      Cu986   2.379       .  S
C988       C1025   1.459       .  S
C989       C1027   1.456       .  S
O991       Cu999   2.021       .  S
O991       C1001   1.278       .  A
O992       Cu999   2.011       .  S
O992       C1002   1.277       .  A
O993       Cu999   2.016       .  S
O993       C1003   1.278       .  A
O994       Cu999   2.021       .  S
O994       C1004   1.278       .  A
O995      Cu1000   1.994       .  S
O995       C1004   1.275       .  A
O996      Cu1000   1.999       .  S
O996       C1003   1.275       .  A
O997      Cu1000   2.000       .  S
O997       C1002   1.276       .  A
O998      Cu1000   2.001       .  S
O998       C1001   1.276       .  A
Cu999     Cu1000   2.379       .  S
C1002      C1015   1.457       .  S
C1003      C1013   1.457       .  S
C1005      C1103   1.491       .  S
C1005      N1006   1.365   1_554  A
N1006      C1007   1.356       .  A
C1007      N1008   1.349   1_556  A
C1009      N1010   1.356       .  A
C1011      C1087   1.496       .  S
C1011      N1012   1.366       .  A
N1012      C1013   1.359       .  A
C1013      N1014   1.351       .  A
C1015      N1016   1.356       .  A
C1017      C1068   1.502       .  S
C1017      N1018   1.362       .  A
N1018      C1019   1.355       .  A
C1019      N1020   1.350       .  A
C1021      N1022   1.360       .  A
C1023      C1052   1.495       .  S
C1023      N1024   1.366   1_554  A
N1024      C1025   1.356       .  A
C1025      N1026   1.350   1_556  A
C1027      N1028   1.357       .  A
C1029      C1030   1.395       .  A
C1029      C1034   1.413       .  A
C1030      C1031   1.397   1_554  A
C1030      H1049   1.085       .  S
C1031      C1100   1.475       .  S
C1031      C1032   1.411       .  A
C1032      C1033   1.415   1_556  A
C1032      C1039   1.406       .  A
C1033      C1034   1.418       .  A
C1033      C1038   1.418       .  A
C1034      C1035   1.404       .  A
C1035      C1036   1.392       .  A
C1035      H1045   1.083       .  S
C1036      C1037   1.406       .  A
C1036      H1046   1.083       .  S
C1037      C1038   1.418       .  A
C1037      C1044   1.412       .  A
C1038      C1041   1.421   1_554  A
C1039      C1040   1.392       .  A
C1039      H1047   1.083       .  S
C1040      C1041   1.405       .  A
C1040      H1048   1.082       .  S
C1041      C1042   1.415       .  A
C1042      C1043   1.397       .  A
C1043      C1044   1.397   1_556  A
C1043      H1050   1.085       .  S
C1044      C1055   1.480       .  S
C1051      C1052   1.410   1_556  A
C1051      C1056   1.404       .  A
C1051      H1058   1.082       .  S
C1053      C1054   1.408       .  A
C1053      C1060   1.522       .  S
C1054      H1059   1.084       .  S
C1055      C1056   1.412   1_554  A
C1056      C1057   1.522       .  S
C1057      F1063   1.382       .  S
C1060      F1064   1.383       .  S
C1067      C1072   1.406       .  A
C1067      H1074   1.084       .  S
C1068      C1069   1.431       .  A
C1069      C1070   1.407       .  A
C1069      C1076   1.522       .  S
C1070      C1071   1.396       .  A
C1070      H1075   1.083       .  S
C1072      C1073   1.520       .  S
C1073      F1077   1.383       .  S
C1073      F1078   1.381       .  S
C1073      F1079   1.381       .  S
C1076      F1080   1.384       .  S
C1076      F1081   1.383       .  S
C1076      F1082   1.384       .  S
C1083      C1088   1.407       .  A
C1083      H1090   1.083       .  S
C1084      C1085   1.409       .  A
C1085      C1086   1.405       .  A
C1085      C1092   1.519       .  S
C1086      C1087   1.411       .  A
C1086      H1091   1.082       .  S
C1088      C1089   1.523       .  S
C1089      F1095   1.383       .  S
C1092      F1096   1.384       .  S
C1099      C1104   1.404       .  A
C1099      H1106   1.084       .  S
C1100      C1101   1.408       .  A
C1101      C1102   1.402       .  A
C1101      C1108   1.519       .  S
C1102      C1103   1.411   1_556  A
C1102      H1107   1.082       .  S
C1104      C1105   1.521       .  S
C1105      F1109   1.385       .  S
C1105      F1111   1.383       .  S
C1108      F1112   1.383       .  S
C1108      F1114   1.384       .  S
C1115      C1116   1.401       .  A
C1115      C1120   1.410       .  A
C1115      H1122   1.083       .  S
C1117      C1118   1.403       .  A
C1117      C1124   1.521       .  S
C1118      H1123   1.082       .  S
C1119      C1120   1.428       .  A
C1120      C1121   1.521       .  S
C1121      F1125   1.385       .  S
C1121      F1127   1.383       .  S
C1124      F1128   1.379       .  S
C1124      F1130   1.384       .  S
C1131      C1136   1.409       .  A
C1131      H1138   1.083       .  S
C1132      C1133   1.414       .  A
C1133      C1134   1.410       .  A
C1133      C1140   1.520       .  S
C1134      C1135   1.412       .  A
C1134      H1139   1.082       .  S
C1136      C1137   1.523       .  S
C1137      F1141   1.385       .  S
C1137      F1142   1.383       .  S
C1140      F1145   1.382       .  S
C1140      F1146   1.384       .  S
C1147      C1152   1.405       .  A
C1147      H1154   1.082       .  S
C1148      C1149   1.429   1_554  A
C1149      C1150   1.411       .  A
C1149      C1156   1.520       .  S
C1150      C1151   1.400   1_556  A
C1150      H1155   1.084       .  S
C1152      C1153   1.521       .  S
C1153      F1159   1.383       .  S
C1156      F1160   1.383       .  S
C1163      C1164   1.413   1_556  A
C1163      C1168   1.406       .  A
C1163      H1170   1.082       .  S
C1165      C1166   1.408       .  A
C1165      C1172   1.522       .  S
C1166      H1171   1.084       .  S
C1167      C1168   1.410   1_554  A
C1168      C1169   1.520       .  S
C1169      F1173   1.382       .  S
C1169      F1175   1.383       .  S
C1172      F1176   1.383       .  S
C1172      F1178   1.385       .  S
C1179      C1180   1.400       .  A
C1179      C1184   1.411       .  A
C1179      H1186   1.083       .  S
C1181      C1182   1.404       .  A
C1181      C1188   1.522       .  S
C1182      H1187   1.084       .  S
C1183      C1184   1.427       .  A
C1184      C1185   1.520       .  S
C1185      F1191   1.384       .  S
C1188      F1192   1.382       .  S
C1195      C1196   1.409       .  A
C1195      C1200   1.404       .  A
C1195      H1202   1.082       .  S
C1197      C1198   1.410       .  A
C1197      C1204   1.522       .  S
C1198      H1203   1.084       .  S
C1199      C1200   1.412       .  A
C1200      C1201   1.519       .  S
C1201      F1207   1.384       .  S
C1204      F1208   1.384       .  S
C1211      C1212   1.400       .  A
C1211      C1216   1.407       .  A
C1211      H1218   1.084       .  S
C1213      C1214   1.410       .  A
C1213      C1220   1.520       .  S
C1214      H1219   1.084       .  S
C1215      C1216   1.429       .  A
C1216      C1217   1.522       .  S
C1217      F1223   1.382       .  S
C1220      F1224   1.382       .  S
C1227      C1232   1.406       .  A
C1227      H1234   1.082       .  S
C1228      C1229   1.427       .  A
C1229      C1230   1.405       .  A
C1229      C1236   1.521       .  S
C1230      C1231   1.397       .  A
C1230      H1235   1.083       .  S
C1232      C1233   1.519       .  S
C1233      F1237   1.384       .  S
C1233      F1239   1.383       .  S
C1236      F1240   1.385       .  S
C1236      F1242   1.383       .  S
