geometry optimzed in LAMMPS
_audit_creation_date              2020-11-30 
_audit_creation_method            'lammps2cif' 
_symmetry_space_group_name_H-M    'P1' 
_symmetry_Int_Tables_number       1 
_symmetry_cell_setting            triclinic 
loop_ 
_symmetry_equiv_pos_as_xyz 
  x,y,z 
_cell_length_a                    34.83941609956073 
_cell_length_b                    34.699384231907395 
_cell_length_c                    34.87087488261443 
_cell_angle_alpha                 90.00599742349902 
_cell_angle_beta                  89.98204115846423 
_cell_angle_gamma                 90.00946619874966 
loop_ 
_atom_site_label 
_atom_site_type_symbol 
_atom_site_fract_x 
_atom_site_fract_y 
_atom_site_fract_z 
_atom_site_charge 
O1          O  0.70754684  0.70659546  0.21330730    -0.88180
C2          C  0.73358252  0.70013173  0.32793212     0.87850
Mg3        Mg  0.75039642  0.70172163  0.16847828     1.58150
O4          O  0.71151513  0.79394069  0.29403898    -0.87910
O5          O  0.66246358  0.74482941  0.23384684    -0.75240
C6          C  0.88538898  0.82690673  0.21624833     0.92900
O7          O  0.77329241  0.65527034  0.25063459    -0.75050
O8          O  0.88126456  0.79500303  0.19862753    -0.82560
Mg9        Mg  0.70719219  0.66127787  0.25545788     1.57960
C10         C  0.78713109  0.88484034  0.32933703     0.92820
O11         O  0.64195479  0.65686793  0.26603182    -0.80820
H12         H  0.67512279  0.83165854  0.27046479    -0.06170
C13         C  0.82682615  0.76854453  0.30029155     0.87760
O14         O  0.75388416  0.76777125  0.16219310    -0.75330
O15         O  0.71252967  0.70569187  0.30002629    -0.88100
O16         O  0.76453370  0.85969163  0.34347144    -0.80910
C17         C  0.67468239  0.78550335  0.38833748     0.92940
C18         C  0.61761548  0.67024114  0.28987550     0.92790
Mg19       Mg  0.79653331  0.83335281  0.25062089     1.57950
O20         O  0.86138358  0.83858643  0.24121390    -0.80830
O21         O  0.73081120  0.83895498  0.25484975    -0.75070
O22         O  0.66226830  0.76066296  0.36439239    -0.80910
O23         O  0.69786292  0.61702733  0.20615272    -0.82620
O24         O  0.84222983  0.73488467  0.14152198    -0.80940
C25         C  0.70446262  0.82194169  0.27341655     0.87230
O26         O  0.79193409  0.78813070  0.20750941    -0.88080
O27         O  0.79839573  0.78899643  0.29443713    -0.88190
O28         O  0.84363070  0.75083870  0.27311181    -0.75240
Mg29       Mg  0.66783902  0.74961273  0.29933798     1.57970
O30         O  0.70687723  0.80231745  0.38388758    -0.82620
H31         H  0.66978174  0.73056343  0.17784188    -0.06340
O32         O  0.79420304  0.70088182  0.21267103    -0.87890
H33         H  0.82947710  0.66216515  0.23643428    -0.06170
H34         H  0.76848103  0.82399560  0.16967499    -0.06340
C35         C  0.80037083  0.67244789  0.23309102     0.87200
C36         C  0.67947891  0.72710817  0.20697481     0.87790
C37         C  0.77165163  0.79465632  0.17934089     0.87840
H38         H  0.83735235  0.76519377  0.32927256    -0.06320
O39         O  0.75080459  0.72781466  0.34449605    -0.75350
Mg40       Mg  0.83756667  0.74584464  0.20714384     1.58000
H41         H  0.73778828  0.67104975  0.33824558    -0.06340
C42         C  0.71577399  0.61290917  0.17451016     0.92820
O43         O  0.79640840  0.69462204  0.12196140    -0.82580
C44         C  0.82844717  0.71146567  0.11685967     0.92880
O45         O  0.62251556  0.70234378  0.30684700    -0.82560
Mg46       Mg  0.75462705  0.79408856  0.33876443     1.58180
O47         O  0.74182705  0.63641597  0.16402682    -0.80900
O48         O  0.80329455  0.88018877  0.29689327    -0.82590
O49         O  0.78872030  0.31208526  0.76816604    -0.88180
C50         C  0.77883785  0.25946099  0.66303951     0.87850
Mg51       Mg  0.81147588  0.28281168  0.81823562     1.58150
O52         O  0.69103304  0.26939683  0.71378178    -0.87910
O53         O  0.73652117  0.34151856  0.75027584    -0.75240
C54         C  0.71949187  0.11638203  0.83149464     0.92900
O55         O  0.84494344  0.24804732  0.73183898    -0.75050
O56         O  0.75332234  0.13025656  0.83405677    -0.82560
Mg57       Mg  0.82315352  0.30843865  0.71587316     1.57960
C58         C  0.61876272  0.16946140  0.71661236     0.92820
O59         O  0.81217135  0.36878048  0.68912674    -0.80820
H60         H  0.65098661  0.30213605  0.73871718    -0.06170
C61         C  0.74280262  0.16268446  0.72422346     0.87760
O62         O  0.75208889  0.26660198  0.84130286    -0.75330
O63         O  0.77309465  0.28542688  0.68645845    -0.88100
O64         O  0.63470845  0.19044681  0.69116577    -0.80910
C65         C  0.67239696  0.28317379  0.61517855     0.92940
C66         C  0.78668875  0.38410459  0.66772903     0.92790
Mg67       Mg  0.68372077  0.19168249  0.78259390     1.57950
O68         O  0.69400372  0.13160226  0.81005929    -0.80830
O69         O  0.66200486  0.25192507  0.76637378    -0.75070
O70         O  0.69372650  0.30864929  0.63064415    -0.80910
O71         O  0.87419516  0.33413358  0.74852908    -0.82620
O72         O  0.81229265  0.19182103  0.86760638    -0.80940
C73         C  0.66712435  0.27552527  0.73912549     0.87230
O74         O  0.73437389  0.21455715  0.81124667    -0.88080
O75         O  0.71758705  0.18693952  0.73003470    -0.88190
O76         O  0.77004560  0.15759081  0.74778414    -0.75240
Mg77       Mg  0.72048058  0.31942400  0.69052618     1.57970
O78         O  0.66918199  0.24927794  0.62908825    -0.82620
H79         H  0.76391244  0.35266716  0.80038187    -0.06340
O80         O  0.81582554  0.23002073  0.78427356    -0.87890
H81         H  0.85591037  0.19755437  0.75903937    -0.06170
H82         H  0.70410436  0.23651847  0.85445352    -0.06340
C83         C  0.83975164  0.22415432  0.75885926     0.87200
C84         C  0.76354009  0.33630249  0.77399399     0.87790
C85         C  0.72906591  0.23878967  0.83646058     0.87840
H86         H  0.74228345  0.14618869  0.69791770    -0.06320
O87         O  0.75495566  0.23231917  0.65841934    -0.75350
Mg88       Mg  0.78629567  0.18012379  0.80755750     1.58000
H89         H  0.80534132  0.25922464  0.64689003    -0.06340
C90         C  0.88745586  0.32991878  0.78241413     0.92820
O91         O  0.83706674  0.25105452  0.86915858    -0.82580
C92         C  0.83320678  0.21743596  0.88342565     0.92880
O93         O  0.75300950  0.36996562  0.66460925    -0.82560
Mg94       Mg  0.69482162  0.21658984  0.67999547     1.58180
O95         O  0.87102107  0.30866927  0.80719420    -0.80900
O96         O  0.63252849  0.16609061  0.75039839    -0.82590
O97         O  0.73202709  0.78236301  0.68705013    -0.88180
C98         C  0.83774087  0.77155074  0.73902107     0.87850
Mg99       Mg  0.68197805  0.80684998  0.71582706     1.58150
O100        O  0.78613304  0.68364318  0.72890366    -0.87910
O101        O  0.75002355  0.73055556  0.65651291    -0.75240
C102        C  0.66671432  0.71877858  0.88461781     0.92900
O103        O  0.76909335  0.83879284  0.75060688    -0.75050
O104        O  0.66477040  0.75268590  0.87044035    -0.82560
Mg105      Mg  0.78484132  0.81607360  0.69082689     1.57960
C106        C  0.78010091  0.61468294  0.83236071     0.92820
O107        O  0.81118471  0.80446357  0.63120416    -0.80820
H108        H  0.74204479  0.71839770  0.73877733    -0.06170
C109        C  0.77351943  0.73847865  0.83793739     0.87760
O110        O  0.65837827  0.74754615  0.73287041    -0.75330
O111        O  0.81368261  0.76565363  0.71380559    -0.88100
O112        O  0.80551710  0.62945833  0.81045148    -0.80910
C113        C  0.88317067  0.66369223  0.71793479     0.92940
C114        C  0.83275992  0.77942251  0.61538101     0.92790
Mg115      Mg  0.71396614  0.68041938  0.81023738     1.57950
O116        O  0.68701675  0.69228720  0.86945033    -0.80830
O117        O  0.73414559  0.66217917  0.75269145    -0.75070
O118        O  0.86876047  0.68519980  0.69195962    -0.80910
O119        O  0.75322405  0.86712403  0.66437682    -0.82620
O120        O  0.63259055  0.81140193  0.80714603    -0.80940
C121        C  0.75236152  0.68912226  0.73690589     0.87230
O122        O  0.68525871  0.73057399  0.78680465    -0.88080
O123        O  0.76763736  0.71360847  0.81346190    -0.88190
O124        O  0.75061390  0.76642661  0.84258359    -0.75240
Mg125      Mg  0.80967638  0.71304891  0.67933481     1.57970
O126        O  0.86858236  0.66135459  0.75145589    -0.82620
H127        H  0.70007559  0.75866422  0.64567557    -0.06340
O128        O  0.71571827  0.81129614  0.76865785    -0.87890
H129        H  0.74193813  0.85123965  0.80054772    -0.06170
H130        H  0.64466525  0.69867333  0.76167875    -0.06340
C131        C  0.74177730  0.83468243  0.77427674     0.87200
C132        C  0.72628022  0.75766964  0.66226462     0.87790
C133        C  0.66174612  0.72468493  0.76101672     0.87840
H134        H  0.79887635  0.73669000  0.85543388    -0.06320
O135        O  0.84210850  0.74829476  0.76665461    -0.75350
Mg136      Mg  0.69154281  0.78374640  0.81934647     1.58000
H137        H  0.85460791  0.79769521  0.73818438    -0.06340
C138        C  0.71959293  0.88145570  0.66695239     0.92820
O139        O  0.63135521  0.83419432  0.74731418    -0.82580
C140        C  0.61729517  0.83200731  0.78106254     0.92880
O141        O  0.83662500  0.74546028  0.62892499    -0.82560
Mg142      Mg  0.81836536  0.68894705  0.78306848     1.58180
O143        O  0.69382906  0.86636024  0.68812272    -0.80900
O144        O  0.74663623  0.62936724  0.83614073    -0.82590
C145        C  0.54567558  0.39790992  0.16851964     0.03300
C146        C  0.51827092  0.39957172  0.19761359    -0.12850
C147        C  0.52260015  0.37721799  0.23062143     0.00800
C148        C  0.55417139  0.35290630  0.23496876    -0.11380
C149        C  0.58168408  0.35011229  0.20622823     0.03290
C150        C  0.57759816  0.37281021  0.17263222    -0.10800
H151        H  0.49318602  0.41778693  0.19434361     0.08880
H152        H  0.55721674  0.33594388  0.26093460     0.06410
H153        H  0.59903434  0.37118418  0.15018618     0.06260
C154        C  0.34861820  0.20456244  0.58026129     0.03300
C155        C  0.34665676  0.23135902  0.55050734    -0.12850
C156        C  0.36943617  0.22681690  0.51784189     0.00800
C157        C  0.39434277  0.19550157  0.51444024    -0.11380
C158        C  0.39748581  0.16858845  0.54383716     0.03290
C159        C  0.37441067  0.17299661  0.57710411    -0.10800
H160        H  0.32807964  0.25629998  0.55312343     0.08880
H161        H  0.41162227  0.19227311  0.48874163     0.06410
H162        H  0.37624708  0.15202862  0.60003839     0.06260
C163        C  0.40686137  0.37317446  0.34694160     0.03300
C164        C  0.40549088  0.34405899  0.37456726    -0.12850
C165        C  0.37601788  0.34334915  0.40172983     0.00800
C166        C  0.34725971  0.37138530  0.40048399    -0.11380
C167        C  0.34864417  0.40083350  0.37313204     0.03290
C168        C  0.37904691  0.40213189  0.34706341    -0.10800
H169        H  0.42738085  0.32192299  0.37491054     0.08880
H170        H  0.32399812  0.37051921  0.42111796     0.06410
H171        H  0.38088057  0.42546888  0.32651687     0.06260
C172        C  0.17246581  0.54272304  0.39806465     0.03300
C173        C  0.17713000  0.57589988  0.37482757    -0.12850
C174        C  0.21008498  0.57987271  0.35130577     0.00800
C175        C  0.23817851  0.55131939  0.35213284    -0.11380
C176        C  0.23336790  0.51859878  0.37503089     0.03290
C177        C  0.20031168  0.51401668  0.39719531    -0.10800
H178        H  0.15540099  0.59822813  0.37496106     0.08880
H179        H  0.26398311  0.55460278  0.33502236     0.06410
H180        H  0.19635827  0.48802117  0.41401791     0.06260
O181        O  0.96318515  0.45595318  0.53946305    -0.88180
C182        C  0.95599025  0.48165949  0.42371184     0.87850
Mg183      Mg  0.95905505  0.50048980  0.58409891     1.58150
O184        O  0.04812291  0.45942612  0.45970479    -0.87910
O185        O  0.99737280  0.40769282  0.51865463    -0.75240
C186        C  0.08264238  0.63673029  0.53444234     0.92900
O187        O  0.91250006  0.52365841  0.50317112    -0.75050
O188        O  0.05106110  0.63250557  0.55226667    -0.82560
Mg189      Mg  0.91779195  0.45772200  0.49720632     1.57960
C190        C  0.13795966  0.53598690  0.42163392     0.92820
O191        O  0.91178280  0.39263465  0.48683084    -0.80820
H192        H  0.08609240  0.42392949  0.48427105    -0.06170
C193        C  0.02357113  0.57595462  0.45133018     0.87760
O194        O  0.02486113  0.50569179  0.58979293    -0.75330
O195        O  0.96174963  0.46233126  0.45284273    -0.88100
O196        O  0.11454438  0.50992048  0.41102815    -0.80910
C197        C  0.03904483  0.42305132  0.36510373     0.92940
C198        C  0.92257331  0.36818055  0.46180484     0.92790
Mg199      Mg  0.08883121  0.54721930  0.50026892     1.57950
O200        O  0.09396333  0.61270598  0.50920028    -0.80830
O201        O  0.09397635  0.48059708  0.49693477    -0.75070
O202        O  0.01304205  0.41206601  0.38830771    -0.80910
O203        O  0.87338670  0.44931859  0.54502006    -0.82620
O204        O  0.99414584  0.59292014  0.60943500    -0.80940
C205        C  0.07632723  0.45322394  0.48024140     0.87230
O206        O  0.04548016  0.54303697  0.54430027    -0.88080
O207        O  0.04358753  0.54732928  0.45782883    -0.88190
O208        O  0.00652491  0.59378091  0.47825070    -0.75240
Mg209      Mg  0.00312301  0.41581045  0.45321403     1.57970
O210        O  0.05779222  0.45405495  0.37025103    -0.82620
H211        H  0.97989504  0.41300990  0.57381686    -0.06340
O212        O  0.95864644  0.54402897  0.53977737    -0.87890
H213        H  0.91958405  0.57988400  0.51771086    -0.06170
H214        H  0.08098968  0.51997327  0.58301568    -0.06340
C215        C  0.92989863  0.55062558  0.52040035     0.87200
C216        C  0.98015950  0.42537223  0.54548890     0.87790
C217        C  0.05187326  0.52307684  0.57273066     0.87840
H218        H  0.02015904  0.58582320  0.42211751    -0.06320
O219        O  0.98331458  0.49884435  0.40667867    -0.75350
Mg220      Mg  0.00288245  0.58809469  0.54429026     1.58000
H221        H  0.92725900  0.48395897  0.41240473    -0.06340
C222        C  0.86946625  0.46546225  0.57754043     0.92820
O223        O  0.95123525  0.54913849  0.62818280    -0.82580
C224        C  0.96875322  0.58103329  0.63289969     0.92880
O225        O  0.95406028  0.37194786  0.44361265    -0.82560
Mg226      Mg  0.04914647  0.50229454  0.41443346     1.58180
O227        O  0.89394684  0.48954955  0.59035471    -0.80900
O228        O  0.13307349  0.55500183  0.45238287    -0.82590
O229        O  0.54089316  0.95811310  0.45550345    -0.88180
C230        C  0.42543002  0.95177067  0.48224542     0.87850
Mg231      Mg  0.58496752  0.95304456  0.49931276     1.58150
O232        O  0.46034675  0.04457953  0.46141849    -0.87910
O233        O  0.52073244  0.99717558  0.41081270    -0.75240
C234        C  0.53779921  0.07868490  0.63418616     0.92900
O235        O  0.50253772  0.90714877  0.52250587    -0.75050
O236        O  0.55550656  0.04694721  0.62957836    -0.82560
Mg237      Mg  0.49751079  0.91314232  0.45661825     1.57960
C238        C  0.42195786  0.13443571  0.53684951     0.92820
O239        O  0.48608583  0.90803645  0.39182117    -0.80820
H240        H  0.48269572  0.08213381  0.42482569    -0.06170
C241        C  0.45303704  0.01975048  0.57517822     0.87760
O242        O  0.59114203  0.01920447  0.50319132    -0.75330
O243        O  0.45400181  0.95777200  0.46214123    -0.88100
O244        O  0.41122482  0.11082279  0.51104483    -0.80910
C245        C  0.36635116  0.03539409  0.42329611     0.92940
C246        C  0.46282495  0.92224342  0.36745868     0.92790
Mg247      Mg  0.50180041  0.08529486  0.54627826     1.57950
O248        O  0.51174917  0.08987876  0.61110886    -0.80830
O249        O  0.49739806  0.09143386  0.48051219    -0.75070
O250        O  0.39013532  0.00962724  0.41286697    -0.80910
O251        O  0.54495808  0.86783689  0.44780551    -0.82620
O252        O  0.61172687  0.98795031  0.59049385    -0.80940
C253        C  0.47994999  0.07316101  0.45421984     0.87230
O254        O  0.54603206  0.04090586  0.54079988    -0.88080
O255        O  0.45907486  0.04012372  0.54687749    -0.88190
O256        O  0.48019957  0.00248137  0.59242152    -0.75240
Mg257      Mg  0.45505698  0.00120810  0.41741962     1.57970
O258        O  0.37062354  0.05410442  0.45439483    -0.82620
H259        H  0.57659951  0.98179944  0.41728409    -0.06340
O260        O  0.54036597  0.95305861  0.54258997    -0.87890
H261        H  0.51725017  0.91449122  0.57843243    -0.06170
H262        H  0.58463324  0.07586913  0.51649924    -0.06340
C263        C  0.52022507  0.92457130  0.54924117     0.87200
C264        C  0.54742644  0.97874161  0.42743271     0.87790
C265        C  0.57426691  0.04674158  0.52028063     0.87840
H266        H  0.42393033  0.01618957  0.58499247    -0.06320
O267        O  0.40821724  0.97912476  0.49935599    -0.75350
Mg268      Mg  0.54625156  0.99807451  0.58597933     1.58000
H269        H  0.41509957  0.92259410  0.48571340    -0.06340
C270        C  0.57703998  0.86345598  0.46472233     0.92820
O271        O  0.63013678  0.94493375  0.54680565    -0.82580
C272        C  0.63539805  0.96273603  0.57829663     0.92880
O273        O  0.44717917  0.95495023  0.37210744    -0.82560
Mg274      Mg  0.41491370  0.04536282  0.50293471     1.58180
O275        O  0.58942493  0.88763247  0.48932263    -0.80900
O276        O  0.45328918  0.12994274  0.55512629    -0.82590
C277        C  0.59748803  0.62078404  0.65309617     0.03300
C278        C  0.62718584  0.59371806  0.65424796    -0.12850
C279        C  0.65633175  0.59517040  0.62697218     0.00800
C280        C  0.65700865  0.62410916  0.59947203    -0.11380
C281        C  0.62712703  0.65066481  0.59763104     0.03290
C282        C  0.59733095  0.64903556  0.62443201    -0.10800
H283        H  0.62812840  0.57199635  0.67655132     0.08880
H284        H  0.68069667  0.62564119  0.57935585     0.06410
H285        H  0.57409861  0.66977616  0.62300796     0.06260
C286        C  0.42064861  0.64764427  0.79314718     0.03300
C287        C  0.44946332  0.64786056  0.76545423    -0.12850
C288        C  0.48190881  0.62464797  0.76976313     0.00800
C289        C  0.48570692  0.60042716  0.80151709    -0.11380
C290        C  0.45711922  0.59894017  0.82938197     0.03290
C291        C  0.42431175  0.62290328  0.82540187    -0.10800
H292        H  0.44647714  0.66584832  0.74018714     0.08880
H293        H  0.51120193  0.58274156  0.80457891     0.06410
H294        H  0.40203803  0.62236289  0.84707250     0.06260
C295        C  0.60052425  0.82874491  0.45738951     0.03300
C296        C  0.62564871  0.82530002  0.42550879    -0.12850
C297        C  0.65111496  0.79348402  0.42281765     0.00800
C298        C  0.65189216  0.76658597  0.45238321    -0.11380
C299        C  0.62671759  0.76966710  0.48360361     0.03290
C300        C  0.60057111  0.80018808  0.48536601    -0.10800
H301        H  0.62539825  0.84701103  0.40319779     0.08880
H302        H  0.67198054  0.74277600  0.45072826     0.06410
H303        H  0.58025258  0.80206711  0.50883332     0.06260
C304        C  0.83456313  0.45787275  0.60044489     0.03300
C305        C  0.82993836  0.42471121  0.62399842    -0.12850
C306        C  0.79559414  0.41945438  0.64542883     0.00800
C307        C  0.76690697  0.44729488  0.64290482    -0.11380
C308        C  0.77180626  0.47983327  0.62007460     0.03290
C309        C  0.80547612  0.48531185  0.59920476    -0.10800
H310        H  0.85231591  0.40307601  0.62500780     0.08880
H311        H  0.74057754  0.44391524  0.65919716     0.06410
H312        H  0.80890609  0.51098942  0.58178675     0.06260
O313        O  0.45565671  0.53665181  0.95772934    -0.88180
C314        C  0.48268446  0.42202320  0.95048379     0.87850
Mg315      Mg  0.49839983  0.58172858  0.95280458     1.58150
O316        O  0.46149027  0.45644273  0.04343204    -0.87910
O317        O  0.40988673  0.51674305  0.99540276    -0.75240
C318        C  0.63654467  0.53693502  0.07659155     0.92900
O319        O  0.52195108  0.49937358  0.90664062    -0.75050
O320        O  0.63236785  0.55277990  0.04383342    -0.82560
Mg321      Mg  0.45589266  0.49430098  0.91247271     1.57960
C322        C  0.53878570  0.42063646  0.13333900     0.92820
O323        O  0.39060056  0.48393744  0.90810176    -0.80820
H324        H  0.42582692  0.47909490  0.08227057    -0.06170
C325        C  0.57776188  0.45076996  0.01885198     0.87760
O326        O  0.50246190  0.58829322  0.01846718    -0.75330
O327        O  0.46132885  0.44981209  0.95637366    -0.88100
O328        O  0.51514518  0.40742361  0.10873235    -0.80910
C329        C  0.42531023  0.36180929  0.03579881     0.92940
C330        C  0.36618604  0.45994617  0.92121691     0.92790
Mg331      Mg  0.54737095  0.50037214  0.08357749     1.57950
O332        O  0.61208461  0.51306797  0.08984695    -0.80830
O333        O  0.48176485  0.49411627  0.08902484    -0.75070
O334        O  0.41203313  0.38579385  0.01151673    -0.80910
O335        O  0.44705901  0.54283325  0.86793312    -0.82620
O336        O  0.59092863  0.60922303  0.98444023    -0.80940
C337        C  0.45495953  0.47635821  0.07192417     0.87230
O338        O  0.54203014  0.54418267  0.03914721    -0.88080
O339        O  0.54908843  0.45686241  0.03871942    -0.88190
O340        O  0.59447950  0.47790069  0.00100149    -0.75240
Mg341      Mg  0.41677922  0.45084041  0.00015286     1.57970
O342        O  0.45785266  0.36646885  0.05177913    -0.82620
H343        H  0.41702864  0.57268489  0.97963265    -0.06340
O344        O  0.54270218  0.53760134  0.95202895    -0.87890
H345        H  0.57806115  0.51390103  0.91346294    -0.06170
H346        H  0.51806294  0.58280035  0.07428766    -0.06340
C347        C  0.54894082  0.51713677  0.92370886     0.87200
C348        C  0.42707425  0.54339348  0.97735659     0.87790
C349        C  0.52109338  0.57217664  0.04531857     0.87840
H350        H  0.58853361  0.42168972  0.01616726    -0.06320
O351        O  0.50097541  0.40585776  0.97761099    -0.75350
Mg352      Mg  0.58711347  0.54384053  0.99596172     1.58000
H353        H  0.48642440  0.41162638  0.92148670    -0.06340
C354        C  0.46431248  0.57492188  0.86372600     0.92820
O355        O  0.54395336  0.62821251  0.94536424    -0.82580
C356        C  0.57634992  0.63355405  0.96124203     0.92880
O357        O  0.37102472  0.44275409  0.95314434    -0.82560
Mg358      Mg  0.50522927  0.41204655  0.04349769     1.58180
O359        O  0.48911320  0.58680143  0.88779539    -0.80900
O360        O  0.55553165  0.45296334  0.12891623    -0.82590
O361        O  0.53978299  0.45223869  0.45841826    -0.88180
C362        C  0.54621624  0.47907492  0.57372914     0.87850
Mg363      Mg  0.54484052  0.49686797  0.41467182     1.58150
O364        O  0.45265426  0.45747212  0.53984687    -0.87910
O365        O  0.50160181  0.40724387  0.47969284    -0.75240
C366        C  0.42165368  0.63376547  0.46337789     0.92900
O367        O  0.59013566  0.51933867  0.49683405    -0.75050
O368        O  0.45341349  0.62891111  0.44606412    -0.82560
Mg369      Mg  0.58454033  0.45309446  0.50151933     1.57960
C370        C  0.36397761  0.53617305  0.57676269     0.92820
O371        O  0.58984865  0.38791871  0.51291887    -0.80820
H372        H  0.41422462  0.42159104  0.51659411    -0.06170
C373        C  0.47872600  0.57325125  0.54661122     0.87760
O374        O  0.47878554  0.50028443  0.40806354    -0.75330
O375        O  0.54024593  0.45840626  0.54559282    -0.88100
O376        O  0.38801186  0.51189657  0.59000787    -0.80910
C377        C  0.46172761  0.42100306  0.63421451     0.92940
C378        C  0.57728936  0.36393220  0.53763330     0.92790
Mg379      Mg  0.41345597  0.54389819  0.49718926     1.57950
O380        O  0.40878195  0.60935909  0.48743256    -0.80830
O381        O  0.40721193  0.47778242  0.50177871    -0.75070
O382        O  0.48651029  0.40836193  0.61045093    -0.80910
O383        O  0.62912097  0.44441072  0.45301930    -0.82620
O384        O  0.50829624  0.58704189  0.38863175    -0.80940
C385        C  0.42433122  0.45089646  0.51962118     0.87230
O386        O  0.45745332  0.53828264  0.45336249    -0.88080
O387        O  0.45833966  0.54484851  0.54035840    -0.88190
O388        O  0.49651397  0.59019744  0.51966014    -0.75240
Mg389      Mg  0.49702962  0.41333357  0.54539098     1.57970
O390        O  0.44485054  0.45318698  0.62945034    -0.82620
H391        H  0.51568776  0.41349723  0.42348045    -0.06340
O392        O  0.54375653  0.53906345  0.45967971    -0.87890
H393        H  0.58124857  0.57550983  0.48269927    -0.06170
H394        H  0.42245804  0.51398457  0.41483474    -0.06340
C395        C  0.57210741  0.54601921  0.47957881     0.87200
C396        C  0.51920344  0.42395620  0.45247986     0.87790
C397        C  0.45151876  0.51767180  0.42507975     0.87840
H398        H  0.48199290  0.58353150  0.57570247    -0.06320
O399        O  0.51896942  0.49660556  0.59049979    -0.75350
Mg400      Mg  0.50026012  0.58336348  0.45391743     1.58000
H401        H  0.57526834  0.48269730  0.58402924    -0.06340
C402        C  0.63373606  0.46325346  0.42199039     0.92820
O403        O  0.55351800  0.54561692  0.37059246    -0.82580
C404        C  0.53474820  0.57666610  0.36563566     0.92880
O405        O  0.54497511  0.36836770  0.55413672    -0.82560
Mg406      Mg  0.45311679  0.50096701  0.58457800     1.58180
O407        O  0.61023191  0.48932182  0.41152138    -0.80900
O408        O  0.36855857  0.55231248  0.54433529    -0.82590
O409        O  0.06052202  0.96460335  0.01984418    -0.88180
C410        C  0.00693589  0.97407860  0.91464709     0.87850
Mg411      Mg  0.03227694  0.94148072  0.07068551     1.58150
O412        O  0.01607341  0.06157866  0.96660164    -0.87910
O413        O  0.08998785  0.01676471  0.00137650    -0.75240
C414        C  0.86366506  0.03021080  0.08364405     0.92900
O415        O  0.99691530  0.90742408  0.98464609    -0.75050
O416        O  0.87781979  0.99647312  0.08727891    -0.82560
Mg417      Mg  0.05649096  0.93008456  0.96767280     1.57960
C418        C  0.91550203  0.13274854  0.97065134     0.92820
O419        O  0.11629246  0.94201100  0.94001170    -0.80820
H420        H  0.04833739  0.10184833  0.99187124    -0.06170
C421        C  0.91079088  0.00782800  0.97762871     0.87760
O422        O  0.01583650  0.00144741  0.09281213    -0.75330
O423        O  0.03256232  0.98002526  0.93831283    -0.88100
O424        O  0.93657930  0.11705794  0.94523876    -0.80910
C425        C  0.02768352  0.08271162  0.86853540     0.92940
C426        C  0.13135728  0.96766280  0.91847006     0.92790
Mg427      Mg  0.93869202  0.06769086  0.03582168     1.57950
O428        O  0.87913501  0.05573917  0.06239342    -0.80830
O429        O  0.99838167  0.09013378  0.01940862    -0.75070
O430        O  0.05340918  0.06116712  0.88332476    -0.80910
O431        O  0.08312987  0.87954758  0.00051966    -0.82620
O432        O  0.94150769  0.93857139  0.12076134    -0.80940
C433        C  0.02197824  0.08539334  0.99215324     0.87230
O434        O  0.96238944  0.01790595  0.06477178    -0.88080
O435        O  0.93464008  0.03345684  0.98333334    -0.88190
O436        O  0.90609531  0.98051469  0.00130595    -0.75240
Mg437      Mg  0.06607472  0.03316204  0.94228971     1.57970
O438        O  0.99402236  0.08509955  0.88268045    -0.82620
H439        H  0.10256128  0.98848323  0.05063839    -0.06340
O440        O  0.97931503  0.93624217  0.03745373    -0.87890
H441        H  0.94728587  0.89547142  0.01267691    -0.06170
H442        H  0.98722022  0.05095128  0.10455921    -0.06340
C443        C  0.97350424  0.91214938  0.01209742     0.87200
C444        C  0.08520000  0.98948827  0.02503632     0.87790
C445        C  0.98795439  0.02442720  0.08832115     0.87840
H446        H  0.89428391  0.00807018  0.95136978    -0.06320
O447        O  0.97947855  0.99763087  0.91015437    -0.75350
Mg448      Mg  0.92905280  0.96479621  0.06103213     1.58000
H449        H  0.00733224  0.94771883  0.89810824    -0.06340
C450        C  0.08010881  0.86589039  0.03443295     0.92820
O451        O  0.00126453  0.91546926  0.12230716    -0.82580
C452        C  0.96755855  0.91812705  0.13642165     0.92880
O453        O  0.11682425  0.00131290  0.91512855    -0.82560
Mg454      Mg  0.96308395  0.05745115  0.93324561     1.58180
O455        O  0.05900279  0.88165109  0.05979979    -0.80900
O456        O  0.91215356  0.11871848  0.00429510    -0.82590
C457        C  0.82949135  0.95885803  0.39906027     0.03300
C458        C  0.80317377  0.98861933  0.39426379    -0.12850
C459        C  0.77242603  0.98457491  0.36897847     0.00800
C460        C  0.76787441  0.95093992  0.34741166    -0.11380
C461        C  0.79397492  0.92068208  0.35129820     0.03290
C462        C  0.82488999  0.92446395  0.37755446    -0.10800
H463        H  0.80641295  0.01508496  0.41052634     0.08880
H464        H  0.74348820  0.94801398  0.32830632     0.06410
H465        H  0.84540313  0.90122789  0.38073184     0.06260
C466        C  0.62868915  0.15907587  0.39658483     0.03300
C467        C  0.65868446  0.13234679  0.39548232    -0.12850
C468        C  0.65811444  0.10247973  0.36867010     0.00800
C469        C  0.62801194  0.09974960  0.34247988    -0.11380
C470        C  0.59820846  0.12669951  0.34327625     0.03290
C471        C  0.59881188  0.15640553  0.37017668    -0.10800
H472        H  0.68202888  0.13430712  0.41595225     0.08880
H473        H  0.62739438  0.07621077  0.32202765     0.06410
H474        H  0.57572171  0.17718006  0.37089110     0.06260
C475        C  0.45494390  0.09885528  0.16822849     0.03300
C476        C  0.48168662  0.09630452  0.19768834    -0.12850
C477        C  0.47929241  0.12030824  0.22964251     0.00800
C478        C  0.44746603  0.14453512  0.23413440    -0.11380
C479        C  0.41831124  0.14550215  0.20674650     0.03290
C480        C  0.42246253  0.12315580  0.17284952    -0.10800
H481        H  0.50518904  0.07601737  0.19507656     0.08880
H482        H  0.44532881  0.16308150  0.25905938     0.06410
H483        H  0.40084522  0.12457022  0.15057873     0.06260
C484        C  0.60049502  0.32902522  0.54522047     0.03300
C485        C  0.62557574  0.32523132  0.57711877    -0.12850
C486        C  0.64999862  0.29256170  0.58017495     0.00800
C487        C  0.65028419  0.26563368  0.55055157    -0.11380
C488        C  0.62470396  0.26863643  0.51981238     0.03290
C489        C  0.59966204  0.30010836  0.51765640    -0.10800
H490        H  0.62567618  0.34700366  0.59937344     0.08880
H491        H  0.67064539  0.24206710  0.55169286     0.06410
H492        H  0.57969682  0.30262241  0.49393916     0.06260
C493        C  0.20406951  0.07848226  0.65012014     0.03300
C494        C  0.23040721  0.04846818  0.65119738    -0.12850
C495        C  0.22706711  0.01706615  0.62618801     0.00800
C496        C  0.19647659  0.01546477  0.60017761    -0.11380
C497        C  0.16837972  0.04402129  0.60001207     0.03290
C498        C  0.17240390  0.07618910  0.62473517    -0.10800
H499        H  0.25400831  0.04994937  0.67141347     0.08880
H500        H  0.19423755  0.99182370  0.58000852     0.06410
H501        H  0.15114072  0.09895911  0.62437424     0.06260
C502        C  0.37515277  0.84828874  0.59502333     0.03300
C503        C  0.34755330  0.87747548  0.59587917    -0.12850
C504        C  0.34506897  0.90200080  0.62747205     0.00800
C505        C  0.37082840  0.89813415  0.65777307    -0.11380
C506        C  0.40036787  0.87105053  0.65567542     0.03290
C507        C  0.40236501  0.84600811  0.62439368    -0.10800
H508        H  0.32784067  0.88106804  0.57210540     0.08880
H509        H  0.36847982  0.91681915  0.68258564     0.06410
H510        H  0.42516155  0.82485785  0.62281851     0.06260
C511        C  0.58199868  0.85421701  0.78965093     0.03300
C512        C  0.55345013  0.85507832  0.76167828    -0.12850
C513        C  0.52006813  0.87634706  0.76740160     0.00800
C514        C  0.51463126  0.89728330  0.80100443    -0.11380
C515        C  0.54277307  0.89776803  0.82938424     0.03290
C516        C  0.57681046  0.87589479  0.82386841    -0.10800
H517        H  0.55698670  0.83884939  0.73531684     0.08880
H518        H  0.48807796  0.91309124  0.80511749     0.06410
H519        H  0.59874786  0.87558021  0.84586807     0.06260
C520        C  0.35308171  0.70740870  0.41919500     0.03300
C521        C  0.37501381  0.67337962  0.42398419    -0.12850
C522        C  0.39919800  0.66910633  0.45638981     0.00800
C523        C  0.40056960  0.69835167  0.48375624    -0.11380
C524        C  0.37921667  0.73202869  0.47860698     0.03290
C525        C  0.35591735  0.73659144  0.44636925    -0.10800
H526        H  0.37349995  0.65069051  0.40269753     0.08880
H527        H  0.41796113  0.69476648  0.50930023     0.06410
H528        H  0.33960489  0.76296163  0.44263662     0.06260
O529        O  0.53609273  0.01896652  0.93658409    -0.88180
C530        C  0.52609655  0.91308013  0.98964418     0.87850
Mg531      Mg  0.55857637  0.06912526  0.96600975     1.58150
O532        O  0.43778985  0.96294159  0.97950444    -0.87910
O533        O  0.48309678  0.00078437  0.90868017    -0.75240
C534        C  0.46440027  0.07857767  0.13213021     0.92900
O535        O  0.59222779  0.98258118  0.00092837    -0.75050
O536        O  0.49825274  0.08251244  0.11860064    -0.82560
Mg537      Mg  0.57021741  0.96632547  0.94095841     1.57960
C538        C  0.36481572  0.96528761  0.07822936     0.92820
O539        O  0.55927861  0.93993529  0.88101387    -0.80820
H540        H  0.39753595  0.98684424  0.94634723    -0.06170
C541        C  0.48886517  0.97359705  0.08523817     0.87760
O542        O  0.49825398  0.09101370  0.98158403    -0.75330
O543        O  0.52018865  0.93693211  0.96412218    -0.88100
O544        O  0.38111700  0.93947385  0.05789138    -0.80910
C545        C  0.42175766  0.86380577  0.96608873     0.92940
C546        C  0.53386198  0.91879394  0.86527410     0.92790
Mg547      Mg  0.42923991  0.03177103  0.05591347     1.57950
O548        O  0.43925448  0.05762312  0.11585227    -0.80830
O549        O  0.40784876  0.01553415  0.99595491    -0.75070
O550        O  0.44299349  0.87959836  0.94084279    -0.80910
O551        O  0.62099209  0.99869571  0.91510689    -0.82620
O552        O  0.55767744  0.11778332  0.05732167    -0.80940
C553        C  0.41347502  0.98787993  0.97293300     0.87230
O554        O  0.47960559  0.06120203  0.03342059    -0.88080
O555        O  0.46359061  0.97939899  0.06117639    -0.88190
O556        O  0.51616934  0.99720531  0.09009993    -0.75240
Mg557      Mg  0.46783625  0.94031379  0.92999478     1.57970
O558        O  0.41751804  0.87800009  0.99956688    -0.82620
H559        H  0.50981703  0.05141897  0.89723739    -0.06340
O560        O  0.56208285  0.03475326  0.01840104    -0.87890
H561        H  0.60271251  0.01059790  0.05092922    -0.06170
H562        H  0.44763274  0.10180906  0.00831036    -0.06340
C563        C  0.58653095  0.00981074  0.02448249     0.87200
C564        C  0.51014924  0.02474701  0.91326470     0.87790
C565        C  0.47409415  0.08552055  0.00823219     0.87840
H566        H  0.48845373  0.94713747  0.10161381    -0.06320
O567        O  0.50225681  0.90781468  0.01661768    -0.75350
Mg568      Mg  0.53169162  0.05741687  0.06806580     1.58000
H569        H  0.55267841  0.89708651  0.98955929    -0.06340
C570        C  0.63478137  0.03260190  0.91847704     0.92820
O571        O  0.58383291  0.11999592  0.99885995    -0.82580
C572        C  0.57951768  0.13365179  0.03257733     0.92880
O573        O  0.50026304  0.91515839  0.87930728    -0.82560
Mg574      Mg  0.44173526  0.92906429  0.03200619     1.58180
O575        O  0.61889120  0.05809788  0.93956449    -0.80900
O576        O  0.37826634  0.99937324  0.08100646    -0.82590
C577        C  0.64773196  0.20453477  0.08212897     0.03300
C578        C  0.62457585  0.17149216  0.07602143    -0.12850
C579        C  0.60109618  0.16891859  0.04290103     0.00800
C580        C  0.60064060  0.19952714  0.01707639    -0.11380
C581        C  0.62314366  0.23227968  0.02336123     0.03290
C582        C  0.64684337  0.23450317  0.05555915    -0.10800
H583        H  0.62518499  0.14799740  0.09646333     0.08880
H584        H  0.58264706  0.19781528  0.99174719     0.06410
H585        H  0.66494993  0.25955434  0.05985857     0.06260
C586        C  0.58874781  0.37597692  0.85138324     0.03300
C587        C  0.58803580  0.35005009  0.88210158    -0.12850
C588        C  0.61823403  0.34934028  0.90834141     0.00800
C589        C  0.64813905  0.37571116  0.90553082    -0.11380
C590        C  0.64830803  0.40287839  0.87606285     0.03290
C591        C  0.61883171  0.40277022  0.84886633    -0.10800
H592        H  0.56427100  0.33028405  0.88577795     0.08880
H593        H  0.67143770  0.37486119  0.92614295     0.06410
H594        H  0.61918775  0.42381029  0.82594194     0.06260
C595        C  0.45389067  0.39813606  0.66911365     0.03300
C596        C  0.48058438  0.39986390  0.69878044    -0.12850
C597        C  0.47458372  0.37913576  0.73257788     0.00800
C598        C  0.44219635  0.35570302  0.73663696    -0.11380
C599        C  0.41595633  0.35179635  0.70685265     0.03290
C600        C  0.42150299  0.37349541  0.67278667    -0.10800
H601        H  0.50629994  0.41714923  0.69539810     0.08880
H602        H  0.43769025  0.33989785  0.76310936     0.06410
H603        H  0.40082252  0.37152074  0.64968433     0.06260
C604        C  0.82903580  0.53956379  0.89744758     0.03300
C605        C  0.82347502  0.57369477  0.87548130    -0.12850
C606        C  0.78903768  0.57906955  0.85418822     0.00800
C607        C  0.76088539  0.55059309  0.85545829    -0.11380
C608        C  0.76645912  0.51722525  0.87684657     0.03290
C609        C  0.80023617  0.51155924  0.89751281    -0.10800
H610        H  0.84555853  0.59565912  0.87493857     0.08880
H611        H  0.73430187  0.55432212  0.83968224     0.06410
H612        H  0.80400207  0.48515552  0.91372679     0.06260
C613        C  0.35188954  0.79228215  0.92045490     0.03300
C614        C  0.37721773  0.82408312  0.92383388    -0.12850
C615        C  0.40037944  0.82818425  0.95695834     0.00800
C616        C  0.39890553  0.79996159  0.98520992    -0.11380
C617        C  0.37247549  0.76984872  0.98303232     0.03290
C618        C  0.34939057  0.76577042  0.95039424    -0.10800
H619        H  0.37816401  0.84573553  0.90147784     0.08880
H620        H  0.41778508  0.80225815  0.00981447     0.06410
H621        H  0.32921724  0.74206712  0.94833057     0.06260
C622        C  0.54255762  0.60148584  0.33202222     0.03300
C623        C  0.57740145  0.62217988  0.32746733    -0.12850
C624        C  0.58188125  0.64838754  0.29653659     0.00800
C625        C  0.55206302  0.65297888  0.27036074    -0.11380
C626        C  0.51795716  0.63252954  0.27499621     0.03290
C627        C  0.51298035  0.60730463  0.30573644    -0.10800
H628        H  0.60041651  0.61844568  0.34801454     0.08880
H629        H  0.55552847  0.67211121  0.24599813     0.06410
H630        H  0.48615605  0.59172519  0.30881899     0.06260
C631        C  0.36875007  0.66063647  0.10608392     0.03300
C632        C  0.39811919  0.66249750  0.13331159    -0.12850
C633        C  0.40091116  0.63396945  0.16131759     0.00800
C634        C  0.37504327  0.60327201  0.16180867    -0.11380
C635        C  0.34482353  0.60233376  0.13554384     0.03290
C636        C  0.34117494  0.63169439  0.10845563    -0.10800
H637        H  0.41943674  0.68522785  0.13196941     0.08880
H638        H  0.37880519  0.58010312  0.18230451     0.06410
H639        H  0.31742472  0.63137775  0.08836362     0.06260
C640        C  0.20968778  0.42050933  0.14523654     0.03300
C641        C  0.23794458  0.44882147  0.14554233    -0.12850
C642        C  0.23289837  0.48296400  0.12537889     0.00800
C643        C  0.19959059  0.48958736  0.10430447    -0.11380
C644        C  0.17083062  0.46167177  0.10266707     0.03290
C645        C  0.17576236  0.42673911  0.12346967    -0.10800
H646        H  0.26412617  0.44447611  0.16183756     0.08880
H647        H  0.19612220  0.51669321  0.08920317     0.06410
H648        H  0.15359559  0.40486391  0.12279330     0.06260
O649        O  0.03682213  0.48381508  0.06272475    -0.88180
C650        C  0.02563875  0.58830288  0.00644080     0.87850
Mg651      Mg  0.05975660  0.43285419  0.03482080     1.58150
O652        O  0.93876788  0.53645730  0.01737765    -0.87910
O653        O  0.98391509  0.50189889  0.09078405    -0.75240
C654        C  0.96914655  0.41636246  0.86877085     0.92900
O655        O  0.09324929  0.51883399  0.99776812    -0.75050
O656        O  0.00255588  0.41442162  0.88348027    -0.82560
Mg657      Mg  0.07058011  0.53670420  0.05686482     1.57960
C658        C  0.86515015  0.53091864  0.91852361     0.92820
O659        O  0.05894125  0.56574159  0.11566272    -0.80820
H660        H  0.89801398  0.51388565  0.05047475    -0.06170
C661        C  0.99054936  0.52474614  0.91275789     0.87760
O662        O  0.99970578  0.41030529  0.01953808    -0.75330
O663        O  0.02027654  0.56489765  0.03253430    -0.88100
O664        O  0.88091951  0.55696623  0.93903511    -0.80910
C665        C  0.91878250  0.63528033  0.03016861     0.92940
C666        C  0.03304767  0.58721161  0.13026035     0.92790
Mg667      Mg  0.93103266  0.46614497  0.94211904     1.57950
O668        O  0.94285863  0.43759087  0.88300271    -0.80830
O669        O  0.90842927  0.48397695  0.00148359    -0.75070
O670        O  0.94110652  0.62057321  0.05502402    -0.80910
O671        O  0.12156608  0.50504557  0.08382520    -0.82620
O672        O  0.06105006  0.38176031  0.94488310    -0.80940
C673        C  0.91417661  0.51193042  0.02415774     0.87230
O674        O  0.98153824  0.43822640  0.96652085    -0.88080
O675        O  0.96447422  0.51924432  0.93605818    -0.88190
O676        O  0.01816912  0.50122876  0.90922918    -0.75240
Mg677      Mg  0.96779211  0.56116852  0.06666298     1.57970
O678        O  0.91492776  0.62080456  0.99670940    -0.82620
H679        H  0.01198745  0.45242658  0.10387584    -0.06340
O680        O  0.06361606  0.46594115  0.98185979    -0.87890
H681        H  0.10447798  0.48916791  0.94891417    -0.06170
H682        H  0.94939488  0.39844467  0.99274495    -0.06340
C683        C  0.08801562  0.49075892  0.97516287     0.87200
C684        C  0.01142855  0.47839526  0.08674464     0.87790
C685        C  0.97582413  0.41479054  0.99248745     0.87840
H686        H  0.99050279  0.55085735  0.89583186    -0.06320
O687        O  0.00143560  0.59269811  0.97961126    -0.75350
Mg688      Mg  0.03435134  0.44166891  0.93283170     1.58000
H689        H  0.05199590  0.60476496  0.00591781    -0.06340
C690        C  0.13538165  0.47103721  0.08102718     0.92820
O691        O  0.08575941  0.38086634  0.00383220    -0.82580
C692        C  0.08230388  0.36635367  0.97036099     0.92880
O693        O  0.99941253  0.58920056  0.11607089    -0.82080
Mg694      Mg  0.94128278  0.56976477  0.96458280     1.58180
O695        O  0.11956992  0.44513409  0.06047992    -0.80900
O696        O  0.87946742  0.49715726  0.91543181    -0.82590
C697        C  0.90213959  0.12621336  0.64786844     0.03300
C698        C  0.88199492  0.09268663  0.63767788    -0.12850
C699        C  0.85010493  0.09461528  0.61340320     0.00800
C700        C  0.84198353  0.12883873  0.59409361    -0.11380
C701        C  0.86355693  0.16180278  0.60172584     0.03290
C702        C  0.89089911  0.16117024  0.63110412    -0.10800
H703        H  0.88963992  0.06499791  0.64971616     0.08880
H704        H  0.81912954  0.12974700  0.57314244     0.06410
H705        H  0.90424706  0.18803947  0.63933724     0.06260
C706        C  0.03676440  0.10543239  0.83357254     0.03300
C707        C  0.00851565  0.10928195  0.80547152    -0.12850
C708        C  0.01741409  0.12360421  0.76883513     0.00800
C709        C  0.05389480  0.14019061  0.76311039    -0.11380
C710        C  0.07980378  0.14392606  0.79338408     0.03290
C711        C  0.07225544  0.12447085  0.82818928    -0.10800
H712        H  0.97971036  0.10027607  0.81242692     0.08880
H713        H  0.06240277  0.15127874  0.73541638     0.06410
H714        H  0.09346628  0.12458303  0.85089757     0.06260
C715        C  0.67077999  0.95551891  0.60073746     0.03300
C716        C  0.67600707  0.92217743  0.62383760    -0.12850
C717        C  0.71083994  0.91668047  0.64432670     0.00800
C718        C  0.73968990  0.94429956  0.64096668    -0.11380
C719        C  0.73388742  0.97786915  0.61971567     0.03290
C720        C  0.69960921  0.98337416  0.59963038    -0.10800
H721        H  0.65364060  0.90053733  0.62522019     0.08880
H722        H  0.76693723  0.93984716  0.65533202     0.06410
H723        H  0.69542574  0.00941697  0.58294877     0.06260
C724        C  0.85071284  0.29531837  0.42014540     0.03300
C725        C  0.87642048  0.32707905  0.42213629    -0.12850
C726        C  0.89810412  0.33377860  0.45595431     0.00800
C727        C  0.89355171  0.30900606  0.48700709    -0.11380
C728        C  0.86951485  0.27692037  0.48442468     0.03290
C729        C  0.84794841  0.27031887  0.45128625    -0.10800
H730        H  0.87892401  0.34665277  0.39807303     0.08880
H731        H  0.90922648  0.31444633  0.51334049     0.06410
H732        H  0.82937030  0.24529351  0.44953812     0.06260
C733        C  0.95471592  0.10245277  0.33235469     0.03300
C734        C  0.98232900  0.10080602  0.30357156    -0.12850
C735        C  0.97745504  0.12184729  0.26982872     0.00800
C736        C  0.94523133  0.14517247  0.26466460    -0.11380
C737        C  0.91772480  0.14808599  0.29347971     0.03290
C738        C  0.92226356  0.12646375  0.32757189    -0.10800
H739        H  0.00764182  0.08299209  0.30731348     0.08880
H740        H  0.94190559  0.16156202  0.23838294     0.06410
H741        H  0.90072371  0.12808336  0.34993107     0.06260
C742        C  0.14781203  0.29123113  0.92196680     0.03300
C743        C  0.12567963  0.32527550  0.92728762    -0.12850
C744        C  0.10382274  0.33047904  0.96138451     0.00800
C745        C  0.10449367  0.30166571  0.98921280    -0.11380
C746        C  0.12585024  0.26817781  0.98359321     0.03290
C747        C  0.14716249  0.26283783  0.95016106    -0.10800
H748        H  0.12587417  0.34751865  0.90550155     0.08880
H749        H  0.08827623  0.30522147  0.01554623     0.06410
H750        H  0.16330454  0.23641120  0.94613709     0.06260
C751        C  0.09453921  0.12319859  0.15620088     0.03300
C752        C  0.09413641  0.15177563  0.12819125    -0.12850
C753        C  0.12090247  0.15074333  0.09838678     0.00800
C754        C  0.14839877  0.12141241  0.09736977    -0.11380
C755        C  0.14919046  0.09340947  0.12610222     0.03290
C756        C  0.12228493  0.09437863  0.15567084    -0.10800
H757        H  0.07320172  0.17481442  0.12989106     0.08880
H758        H  0.16922496  0.12035304  0.07427279     0.06410
H759        H  0.12288573  0.07285173  0.17820196     0.06260
C760        C  0.32945317  0.95613335  0.10014320     0.03300
C761        C  0.29993029  0.98325813  0.09963284    -0.12850
C762        C  0.26869355  0.98009310  0.12458994     0.00800
C763        C  0.26579853  0.94839773  0.14918312    -0.11380
C764        C  0.29395155  0.91995437  0.14939114     0.03290
C765        C  0.32624761  0.92377194  0.12484944    -0.10800
H766        H  0.30160671  0.00733314  0.07989639     0.08880
H767        H  0.24139404  0.94574893  0.16832480     0.06410
H768        H  0.34872673  0.90222051  0.12538927     0.06260
O769        O  0.20404058  0.20714764  0.71142208    -0.88180
C770        C  0.22911695  0.19908106  0.82669631     0.87850
Mg771      Mg  0.24692091  0.20221158  0.66610557     1.58150
O772        O  0.20646609  0.29222075  0.79267188    -0.87910
O773        O  0.15712486  0.24329163  0.73202231    -0.75240
C774        C  0.38186281  0.32727667  0.71390443     0.92900
O775        O  0.27027841  0.15653537  0.74942250    -0.75050
O776        O  0.37765177  0.29570284  0.69579223    -0.82560
Mg777      Mg  0.20425949  0.16163241  0.75375151     1.57960
C778        C  0.28410193  0.38138608  0.82944838     0.92820
O779        O  0.13888204  0.15634756  0.76212219    -0.80820
H780        H  0.17105309  0.33095565  0.76924240    -0.06170
C781        C  0.32233999  0.26738286  0.79802650     0.87760
O782        O  0.25088266  0.26822005  0.65932037    -0.75330
O783        O  0.20879416  0.20530891  0.79839142    -0.88100
O784        O  0.25830604  0.35795619  0.84069159    -0.80910
C785        C  0.17055831  0.28346710  0.88691667     0.92940
C786        C  0.11476078  0.16738772  0.78727851     0.92790
Mg787      Mg  0.29316421  0.33249319  0.74970898     1.57950
O788        O  0.35824610  0.33796008  0.73971787    -0.80830
O789        O  0.22724059  0.33786888  0.75513711    -0.75070
O790        O  0.15810389  0.25832335  0.86327571    -0.80910
O791        O  0.19614786  0.11703643  0.70597911    -0.82620
O792        O  0.33859510  0.23615301  0.63956123    -0.80940
C793        C  0.20016837  0.32066766  0.77248326     0.87230
O794        O  0.28823564  0.28869807  0.70505561    -0.88080
O795        O  0.29356025  0.28706559  0.79191805    -0.88190
O796        O  0.34021811  0.25075980  0.77087221    -0.75240
Mg797      Mg  0.16309431  0.24761573  0.79798298     1.57970
O798        O  0.20248372  0.30062904  0.88193658    -0.82620
H799        H  0.16539649  0.22948031  0.67592180    -0.06340
O800        O  0.29080799  0.20135814  0.71032238    -0.87890
H801        H  0.32635346  0.16348040  0.73492214    -0.06170
H802        H  0.26628983  0.32427537  0.66569856    -0.06340
C803        C  0.29716030  0.17341657  0.73133488     0.87200
C804        C  0.17513541  0.22651847  0.70508180     0.87790
C805        C  0.26860240  0.29517187  0.67637996     0.87840
H806        H  0.33211642  0.26397497  0.82715020    -0.06320
O807        O  0.24660633  0.22627703  0.84369279    -0.75350
Mg808      Mg  0.33401194  0.24648016  0.70482153     1.58000
H809        H  0.23252440  0.16985521  0.83688913    -0.06340
C810        C  0.21229851  0.11291686  0.67354894     0.92820
O811        O  0.29380205  0.19465007  0.62009266    -0.82580
C812        C  0.32574263  0.21188334  0.61529598     0.92880
O813        O  0.11919576  0.19863904  0.80593475    -0.82560
Mg814      Mg  0.24995639  0.29237429  0.83675204     1.58180
O815        O  0.23668585  0.13708565  0.66083454    -0.80900
O816        O  0.30198449  0.37663624  0.79800345    -0.82590
O817        O  0.70414201  0.28800572  0.29188551    -0.88180
C818        C  0.72838289  0.29346451  0.17577013     0.87850
Mg819      Mg  0.74724949  0.29386228  0.33662721     1.58150
O820        O  0.70692971  0.20050398  0.21192328    -0.87910
O821        O  0.65821313  0.25013169  0.27183386    -0.75240
C822        C  0.88336926  0.17159735  0.28612828     0.92900
O823        O  0.76980502  0.33939425  0.25326130    -0.75050
O824        O  0.87853610  0.20298821  0.30430230    -0.82560
Mg825      Mg  0.70431520  0.33266273  0.24853174     1.57960
C826        C  0.78358092  0.11102806  0.17564271     0.92820
O827        O  0.63927851  0.33730603  0.23937170    -0.80820
H828        H  0.67182695  0.16248655  0.23707714    -0.06170
C829        C  0.82123693  0.22772742  0.20377796     0.87760
O830        O  0.75201128  0.22788328  0.34350274    -0.75330
O831        O  0.70946483  0.28759255  0.20510029    -0.88100
O832        O  0.75771585  0.13434929  0.16434021    -0.80910
C833        C  0.67081028  0.21024074  0.11714079     0.92940
C834        C  0.61568669  0.32589069  0.21392235     0.92790
Mg835      Mg  0.79425381  0.16255564  0.25372795     1.57950
O836        O  0.85964178  0.15974041  0.26098755    -0.80830
O837        O  0.72816311  0.15588156  0.25077831    -0.75070
O838        O  0.65967001  0.23576878  0.14091781    -0.80910
O839        O  0.69618060  0.37847347  0.29527913    -0.82620
O840        O  0.84061107  0.26246175  0.36141620    -0.80940
C841        C  0.70091775  0.17260945  0.23311303     0.87230
O842        O  0.78931634  0.20726482  0.29767984    -0.88080
O843        O  0.79342643  0.20671157  0.21026403    -0.88190
O844        O  0.83829101  0.24557586  0.23064253    -0.75240
Mg845      Mg  0.66383244  0.24539630  0.20597224     1.57970
O846        O  0.70154693  0.19110517  0.12215247    -0.82620
H847        H  0.66728278  0.26364668  0.32783427    -0.06340
O848        O  0.79036913  0.29471247  0.29195427    -0.87890
H849        H  0.82575717  0.33342146  0.26842807    -0.06170
H850        H  0.76676905  0.17164638  0.33674206    -0.06340
C851        C  0.79668532  0.32293970  0.27147401     0.87200
C852        C  0.67607876  0.26748251  0.29851311     0.87790
C853        C  0.76958028  0.20086894  0.32634849     0.87840
H854        H  0.83103650  0.23136411  0.17457725    -0.06320
O855        O  0.74532841  0.26606903  0.15851561    -0.75350
Mg856      Mg  0.83404942  0.25071688  0.29650745     1.58000
H857        H  0.73058625  0.32239003  0.16457421    -0.06340
C858        C  0.71210260  0.38328146  0.32777310     0.92820
O859        O  0.79480273  0.30254555  0.38154334    -0.82580
C860        C  0.82751243  0.28664595  0.38565799     0.92880
O861        O  0.61996897  0.29396919  0.19653551    -0.82560
Mg862      Mg  0.74932365  0.20002329  0.16669038     1.58180
O863        O  0.73589959  0.35904667  0.34146135    -0.80900
O864        O  0.80237377  0.11670271  0.20642511    -0.82590
C865        C  0.14979683  0.79491900  0.08227976     0.03300
C866        C  0.12509329  0.82714281  0.07771220    -0.12850
C867        C  0.10233399  0.83074361  0.04411557     0.00800
C868        C  0.10335763  0.80140820  0.01692994    -0.11380
C869        C  0.12798608  0.76989644  0.02123390     0.03290
C870        C  0.15170242  0.76732485  0.05343273    -0.10800
H871        H  0.12424370  0.84937054  0.09950291     0.08880
H872        H  0.08497497  0.80342357  0.99192298     0.06410
H873        H  0.17181773  0.74366425  0.05621977     0.06260
C874        C  0.15121907  0.59176876  0.88450105     0.03300
C875        C  0.15745585  0.62573261  0.90476800    -0.12850
C876        C  0.13115592  0.65586653  0.90212284     0.00800
C877        C  0.10128006  0.65360745  0.87561856    -0.11380
C878        C  0.09400281  0.61938805  0.85545321     0.03290
C879        C  0.11849279  0.58786385  0.86172918    -0.10800
H880        H  0.18231241  0.62856732  0.92325257     0.08880
H881        H  0.08350340  0.67845358  0.87151804     0.06410
H882        H  0.11320565  0.56028859  0.84828636     0.06260
C883        C  0.91842653  0.64108265  0.70962971     0.03300
C884        C  0.92571096  0.62326545  0.67389441    -0.12850
C885        C  0.96098825  0.60410064  0.66764451     0.00800
C886        C  0.98966445  0.60659216  0.69536134    -0.11380
C887        C  0.98118976  0.61973605  0.73251771     0.03290
C888        C  0.94465199  0.63560345  0.73931144    -0.10800
H889        H  0.90417813  0.62390360  0.65150164     0.08880
H890        H  0.01814684  0.59717094  0.68764707     0.06410
H891        H  0.93620456  0.64458643  0.76771935     0.06260
C892        C  0.29183873  0.41576063  0.85322105     0.03300
C893        C  0.32599115  0.42040559  0.87484598    -0.12850
C894        C  0.33078429  0.45308175  0.89882221     0.00800
C895        C  0.30208519  0.48106441  0.89984897    -0.11380
C896        C  0.26842247  0.47634297  0.87849799     0.03290
C897        C  0.26302794  0.44334235  0.85619360    -0.10800
H898        H  0.34834419  0.39876626  0.87330467     0.08880
H899        H  0.30602724  0.50673181  0.91716199     0.06410
H900        H  0.23630781  0.43927365  0.84075008     0.06260
O901        O  0.21080949  0.70929485  0.20520373    -0.88180
C902        C  0.20308581  0.82524368  0.23177138     0.87850
Mg903      Mg  0.20647723  0.66480720  0.24908547     1.58150
O904        O  0.29628702  0.79063609  0.21014426    -0.87910
O905        O  0.24814262  0.73018854  0.15947257    -0.75240
C906        C  0.32926978  0.71471299  0.38498725     0.92900
O907        O  0.15980700  0.74713570  0.27228297    -0.75050
O908        O  0.29834206  0.69592959  0.37998760    -0.82560
Mg909      Mg  0.16557728  0.75204293  0.20641378     1.57960
C910        C  0.38459528  0.82948780  0.28660876     0.92820
O911        O  0.16001078  0.76329701  0.14144617    -0.80820
H912        H  0.33527290  0.76787516  0.17461813    -0.06170
C913        C  0.27054819  0.79802833  0.32537582     0.87760
O914        O  0.27246904  0.65987753  0.25240278    -0.75330
O915        O  0.20932826  0.79671634  0.21153692    -0.88100
O916        O  0.36142493  0.83949413  0.26019815    -0.80910
C917        C  0.28689946  0.88539007  0.17313470     0.92940
C918        C  0.17258043  0.78784838  0.11729526     0.92790
Mg919      Mg  0.33624523  0.74985506  0.29672138     1.57950
O920        O  0.34003117  0.74098735  0.36186222    -0.80830
O921        O  0.34285938  0.75399055  0.23075290    -0.75070
O922        O  0.26168785  0.86148863  0.16161986    -0.80910
O923        O  0.12166953  0.70305977  0.19819568    -0.82620
O924        O  0.24205222  0.63876204  0.33992970    -0.80940
C925        C  0.32510945  0.77096104  0.20375606     0.87230
O926        O  0.29304765  0.70495263  0.29092578    -0.88080
O927        O  0.29070436  0.79202166  0.29686890    -0.88190
O928        O  0.25354669  0.77062469  0.34260933    -0.75240
Mg929      Mg  0.25224582  0.79620758  0.16630092     1.57970
O930        O  0.30460945  0.88088866  0.20471402    -0.82620
H931        H  0.23374397  0.67385508  0.16620180    -0.06340
O932        O  0.20582391  0.70953694  0.29233747    -0.87890
H933        H  0.16723412  0.73241522  0.32819916    -0.06170
H934        H  0.32870764  0.66742333  0.26593067    -0.06340
C935        C  0.17727595  0.72949277  0.29899538     0.87200
C936        C  0.23068047  0.70305842  0.17657678     0.87790
C937        C  0.29946378  0.67707548  0.26991822     0.87840
H938        H  0.26706099  0.82717165  0.33571456    -0.06320
O939        O  0.23016058  0.84259136  0.24905514    -0.75350
Mg940      Mg  0.25027207  0.70433393  0.33589151     1.58000
H941        H  0.17394490  0.83539453  0.23522218    -0.06340
C942        C  0.11726423  0.67106622  0.21560645     0.92820
O943        O  0.19940089  0.61938895  0.29649029    -0.82580
C944        C  0.21726413  0.61464115  0.32795436     0.92880
O945        O  0.20469890  0.80472163  0.12165010    -0.82560
Mg946      Mg  0.29612616  0.83600641  0.25257837     1.58180
O947        O  0.14116724  0.65919721  0.24058502    -0.80900
O948        O  0.37986660  0.79867897  0.30576786    -0.82590
C949        C  0.82791902  0.03940882  0.10472107     0.03300
C950        C  0.82453064  0.07119506  0.13008251    -0.12850
C951        C  0.79065517  0.07623370  0.15210039     0.00800
C952        C  0.76092839  0.04953804  0.14851634    -0.11380
C953        C  0.76376462  0.01881234  0.12261730     0.03290
C954        C  0.79722269  0.01402100  0.10096124    -0.10800
H955        H  0.84790079  0.09161697  0.13272378     0.08880
H956        H  0.73549766  0.05278499  0.16612774     0.06410
H957        H  0.79950285  0.99022131  0.08092739     0.06260
C958        C  0.64499898  0.90470333  0.11881360     0.03300
C959        C  0.64116966  0.87619312  0.09085228    -0.12850
C960        C  0.61218021  0.84851749  0.09402399     0.00800
C961        C  0.58660625  0.84989257  0.12481380    -0.11380
C962        C  0.59037148  0.87860446  0.15261936     0.03290
C963        C  0.61946532  0.90600047  0.14962367    -0.10800
H964        H  0.66072401  0.87552611  0.06666589     0.08880
H965        H  0.56325181  0.82932341  0.12665140     0.06410
H966        H  0.62232314  0.92818887  0.17134629     0.06260
C967        C  0.64307560  0.71003324  0.91885392     0.03300
C968        C  0.62340672  0.67457621  0.92360118    -0.12850
C969        C  0.59697488  0.66990212  0.95410079     0.00800
C970        C  0.59031965  0.70037759  0.97907090    -0.11380
C971        C  0.61067323  0.73489705  0.97529119     0.03290
C972        C  0.63712382  0.73940412  0.94550780    -0.10800
H973        H  0.62778427  0.65133874  0.90332168     0.08880
H974        H  0.56978861  0.69684700  0.00220106     0.06410
H975        H  0.65362709  0.76578370  0.94325442     0.06260
C976        C  0.41831024  0.85427387  0.29363160     0.03300
C977        C  0.44385244  0.86003447  0.26346263    -0.12850
C978        C  0.47482460  0.88515488  0.26764129     0.00800
C979        C  0.48031919  0.90562480  0.30150455    -0.11380
C980        C  0.45509732  0.90069771  0.33201028     0.03290
C981        C  0.42392763  0.87466591  0.32838302    -0.10800
H982        H  0.44022699  0.84420647  0.23687073     0.08880
H983        H  0.50503098  0.92441691  0.30452366     0.06410
H984        H  0.40402608  0.87086811  0.35195759     0.06260
C985        C  0.89507532  0.62958409  0.34197883     0.03300
C986        C  0.88676096  0.66245460  0.36397204    -0.12850
C987        C  0.86005702  0.66082661  0.39400788     0.00800
C988        C  0.83615680  0.62876135  0.39736045    -0.11380
C989        C  0.84010624  0.59841306  0.37171201     0.03290
C990        C  0.87093822  0.59730956  0.34635098    -0.10800
H991        H  0.90175495  0.68925052  0.35918734     0.08880
H992        H  0.81494264  0.62683129  0.41996801     0.06410
H993        H  0.87527708  0.57100145  0.33039260     0.06260
C994        C  0.08264433  0.64757482  0.20795578     0.03300
C995        C  0.07674310  0.62819303  0.17273771    -0.12850
C996        C  0.04127274  0.60979223  0.16548783     0.00800
C997        C  0.01171612  0.61415277  0.19206221    -0.11380
C998        C  0.01888235  0.62778463  0.22921138     0.03290
C999        C  0.05516512  0.64404405  0.23690516    -0.10800
H1000       H  0.09907025  0.62808963  0.15111086     0.08880
H1001       H  0.98309049  0.60598017  0.18355727     0.06410
H1002       H  0.06235655  0.65504708  0.26498077     0.06260
C1003       C  0.85382068  0.78966286  0.57990176     0.03300
C1004       C  0.85209390  0.76400962  0.54923420    -0.12850
C1005       C  0.87152155  0.77186898  0.51513598     0.00800
C1006       C  0.89344514  0.80533046  0.51136657    -0.11380
C1007       C  0.89710926  0.83083197  0.54199815     0.03290
C1008       C  0.87670847  0.82336905  0.57644832    -0.10800
H1009       H  0.83531871  0.73778927  0.55176680     0.08880
H1010       H  0.90793187  0.81138636  0.48449153     0.06410
H1011       H  0.87868092  0.84340630  0.60018646     0.06260
C1012       C  0.66768388  0.45637602  0.39735412     0.03300
C1013       C  0.67300569  0.42197201  0.37594033    -0.12850
C1014       C  0.70420044  0.41870366  0.34988141     0.00800
C1015       C  0.72984823  0.44922250  0.34620677    -0.11380
C1016       C  0.72444873  0.48285402  0.36733859     0.03290
C1017       C  0.69342815  0.48670723  0.39231014    -0.10800
H1018       H  0.65290463  0.39836329  0.37906516     0.08880
H1019       H  0.75456847  0.44656580  0.32745985     0.06410
H1020       H  0.68984941  0.51316362  0.40850447     0.06260
C1021       C  0.91988131  0.85065047  0.20953905     0.03300
C1022       C  0.92523150  0.87330257  0.17608673    -0.12850
C1023       C  0.95876136  0.89619577  0.17188067     0.00800
C1024       C  0.98633081  0.89557084  0.20088253    -0.11380
C1025       C  0.98066954  0.87357635  0.23394123     0.03290
C1026       C  0.94720163  0.85202659  0.23859090    -0.10800
H1027       H  0.90390519  0.87270057  0.15349469     0.08880
H1028       H  0.01268088  0.91188908  0.19753857     0.06410
H1029       H  0.94280297  0.83557274  0.26467697     0.06260
C1030       C  0.13683416  0.83887628  0.39440059     0.03300
C1031       C  0.10543002  0.84190612  0.36992094    -0.12850
C1032       C  0.10542104  0.86936266  0.34058683     0.00800
C1033       C  0.13702889  0.89381486  0.33621419    -0.11380
C1034       C  0.16756553  0.89156375  0.36195779     0.03290
C1035       C  0.16797029  0.86365383  0.39059423    -0.10800
H1036       H  0.08089414  0.82311926  0.37405446     0.08880
H1037       H  0.13754005  0.91530829  0.31368366     0.06410
H1038       H  0.19139274  0.86258061  0.41105394     0.06260
C1039       C  0.29350634  0.07897942  0.35290079     0.03300
C1040       C  0.26866143  0.04767973  0.34959917    -0.12850
C1041       C  0.27601343  0.01361622  0.36940394     0.00800
C1042       C  0.30757962  0.01045834  0.39365243    -0.11380
C1043       C  0.33224457  0.04162009  0.39883576     0.03290
C1044       C  0.32563380  0.07610886  0.37787226    -0.10800
H1045       H  0.24352503  0.04966126  0.33134156     0.08880
H1046       H  0.31257992  0.98373759  0.40901817     0.06410
H1047       H  0.34505267  0.10028002  0.38101590     0.06260
C1048       C  0.10647607  0.67123755  0.54140890     0.03300
C1049       C  0.10952345  0.69790122  0.51181306    -0.12850
C1050       C  0.13300865  0.73008928  0.51586659     0.00800
C1051       C  0.15417779  0.73618866  0.54922491    -0.11380
C1052       C  0.15267371  0.70948804  0.57898670     0.03290
C1053       C  0.12840718  0.67675806  0.57531264    -0.10800
H1054       H  0.09344424  0.69373841  0.48548576     0.08880
H1055       H  0.17216554  0.76158170  0.55177487     0.06410
H1056       H  0.12687380  0.65580226  0.59828156     0.06260
C1057       C  0.16726133  0.95910168  0.89692506     0.03300
C1058       C  0.19551448  0.98758113  0.89647338    -0.12850
C1059       C  0.22943166  0.98231774  0.87591743     0.00800
C1060       C  0.23525023  0.94900833  0.85430430    -0.11380
C1061       C  0.20730172  0.92043847  0.85291160     0.03290
C1062       C  0.17311695  0.92505396  0.87485856    -0.10800
H1063       H  0.19119273  0.01413170  0.91231759     0.08880
H1064       H  0.26173529  0.94541767  0.83831415     0.06410
H1065       H  0.15123718  0.90289187  0.87423029     0.06260
C1066       C  0.41042740  0.11735697  0.84899266     0.03300
C1067       C  0.37966079  0.09164962  0.84759956    -0.12850
C1068       C  0.34940160  0.09506146  0.87372815     0.00800
C1069       C  0.35052371  0.12412715  0.90152823    -0.11380
C1070       C  0.38201687  0.14881511  0.90370570     0.03290
C1071       C  0.41217267  0.14507540  0.87786173    -0.10800
H1072       H  0.37910925  0.06944124  0.82585178     0.08880
H1073       H  0.32691290  0.12766442  0.92148683     0.06410
H1074       H  0.43660642  0.16436671  0.87960108     0.06260
C1075       C  0.40257855  0.32673756  0.04375826     0.03300
C1076       C  0.37709970  0.32336775  0.07539522    -0.12850
C1077       C  0.35370994  0.29006148  0.07941212     0.00800
C1078       C  0.35505847  0.26183751  0.05101212    -0.11380
C1079       C  0.38094866  0.26461155  0.02050754     0.03290
C1080       C  0.40466044  0.29696056  0.01717793    -0.10800
H1081       H  0.37603336  0.34593179  0.09683033     0.08880
H1082       H  0.33587204  0.23732742  0.05293523     0.06410
H1083       H  0.42467665  0.29926769  0.99346223     0.06260
C1084       C  0.54521238  0.10238542  0.66854161     0.03300
C1085       C  0.51647565  0.10356394  0.69611643    -0.12850
C1086       C  0.52091422  0.12598581  0.72887432     0.00800
C1087       C  0.55391128  0.14791901  0.73455052    -0.11380
C1088       C  0.58311911  0.14803919  0.70723405     0.03290
C1089       C  0.57880080  0.12507844  0.67370005    -0.10800
H1090       H  0.49061105  0.08653606  0.69236304     0.08880
H1091       H  0.55707347  0.16443764  0.76078068     0.06410
H1092       H  0.60137527  0.12438211  0.65234940     0.06260
O1093       O  0.03854208  0.04832529  0.54244094    -0.88180
C1094       C  0.04441684  0.02344139  0.42660233     0.87850
Mg1095     Mg  0.04419122  0.00260721  0.58521913     1.58150
O1096       O  0.95156362  0.04388064  0.46221043    -0.87910
O1097       O  0.00034592  0.09411968  0.52274039    -0.75240
C1098       C  0.92014801  0.86608839  0.53585215     0.92900
O1099       O  0.08936226  0.98179633  0.50297425    -0.75050
O1100       O  0.95163297  0.87073256  0.55375467    -0.82560
Mg1101     Mg  0.08300118  0.04801953  0.49869862     1.57960
C1102       C  0.86324983  0.96630296  0.42365836     0.92820
O1103       O  0.08833283  0.11339643  0.48837600    -0.80820
H1104       H  0.91292694  0.07901510  0.48625576    -0.06170
C1105       C  0.97672906  0.92789088  0.45330350     0.87760
O1106       O  0.97817188  0.99856430  0.59242176    -0.75330
O1107       O  0.03829739  0.04316166  0.45539874    -0.88100
O1108       O  0.88649289  0.99264016  0.41325098    -0.80910
C1109       C  0.96136217  0.08014046  0.36758419     0.92940
C1110       C  0.07539108  0.13797883  0.46451662     0.92790
Mg1111     Mg  0.91221284  0.95609689  0.50291847     1.57950
O1112       O  0.90817471  0.89046963  0.51130438    -0.80830
O1113       O  0.90590575  0.02240112  0.49949791    -0.75070
O1114       O  0.98540537  0.09306868  0.39188318    -0.80910
O1115       O  0.12846438  0.05593291  0.54572604    -0.82620
O1116       O  0.00852103  0.91070839  0.61026932    -0.80940
C1117       C  0.92314028  0.04983281  0.48252536     0.87230
O1118       O  0.95621353  0.96110209  0.54705112    -0.88080
O1119       O  0.95720240  0.95662638  0.46040556    -0.88190
O1120       O  0.99423892  0.91001046  0.47975925    -0.75240
Mg1121     Mg  0.99542722  0.08835998  0.45684383     1.57970
O1122       O  0.94391812  0.04832634  0.37231864    -0.82620
H1123       H  0.01537531  0.08661747  0.57855621    -0.06340
O1124       O  0.04321545  0.96072119  0.53966850    -0.87890
H1125       H  0.08298694  0.92554965  0.51781835    -0.06170
H1126       H  0.92173666  0.98495986  0.58632470    -0.06340
C1127       C  0.07211141  0.95457269  0.52019270     0.87200
C1128       C  0.01829220  0.07669553  0.54930149     0.87790
C1129       C  0.95065152  0.98140106  0.57561196     0.87840
H1130       H  0.97932809  0.91802621  0.42400430    -0.06320
O1131       O  0.01751552  0.00531175  0.40990568    -0.75350
Mg1132     Mg  0.99915514  0.91602828  0.54539770     1.58000
H1133       H  0.07331016  0.02126461  0.41561736    -0.06340
C1134       C  0.13353719  0.03734801  0.57676741     0.92820
O1135       O  0.05353135  0.95256789  0.62789126    -0.82580
C1136       C  0.03539247  0.92105060  0.63272493     0.92880
O1137       O  0.04288724  0.13382584  0.44835470    -0.82560
Mg1138     Mg  0.95177808  0.00100739  0.41701597     1.58180
O1139       O  0.10971438  0.01201153  0.58845572    -0.80900
O1140       O  0.86795076  0.94754915  0.45464511    -0.82590
C1141       C  0.96189210  0.39304821  0.83391080     0.03300
C1142       C  0.92704982  0.37310594  0.82650745    -0.12850
C1143       C  0.92334989  0.35005737  0.79296963     0.00800
C1144       C  0.95411712  0.34757728  0.76761538    -0.11380
C1145       C  0.98836223  0.36665062  0.77550605     0.03290
C1146       C  0.99234149  0.38893140  0.80829759    -0.10800
H1147       H  0.90325534  0.37554668  0.84635473     0.08880
H1148       H  0.95131539  0.33125126  0.74122376     0.06410
H1149       H  0.01896215  0.40448216  0.81297123     0.06260
C1150       C  0.09765829  0.37973356  0.65577261     0.03300
C1151       C  0.09350566  0.35294366  0.62636255    -0.12850
C1152       C  0.11899905  0.35304643  0.59545063     0.00800
C1153       C  0.14653986  0.38233399  0.59268209    -0.11380
C1154       C  0.14903481  0.41035894  0.62126021     0.03290
C1155       C  0.12506403  0.40874753  0.65324653    -0.10800
H1156       H  0.07051623  0.33196202  0.62784438     0.08880
H1157       H  0.16666219  0.38282296  0.56896134     0.06410
H1158       H  0.12760700  0.43002559  0.67588542     0.06260
C1159       C  0.09871058  0.17281382  0.45686316     0.03300
C1160       C  0.09728431  0.20262438  0.48354984    -0.12850
C1161       C  0.12135485  0.23477668  0.47999335     0.00800
C1162       C  0.14720955  0.23702859  0.44940279    -0.11380
C1163       C  0.14782474  0.20884901  0.42092959     0.03290
C1164       C  0.12392630  0.17595157  0.42501973    -0.10800
H1165       H  0.07734468  0.20061605  0.50735106     0.08880
H1166       H  0.16677410  0.26121665  0.44731082     0.06410
H1167       H  0.12437693  0.15351558  0.40342805     0.06260
C1168       C  0.29233092  0.58235642  0.64642091     0.03300
C1169       C  0.26152879  0.55720768  0.64150885    -0.12850
C1170       C  0.26463312  0.52592457  0.61662528     0.00800
C1171       C  0.29805423  0.51957730  0.59560342    -0.11380
C1172       C  0.32906353  0.54457371  0.59925839     0.03290
C1173       C  0.32648426  0.57610890  0.62510097    -0.10800
H1174       H  0.23527775  0.56146612  0.65771121     0.08880
H1175       H  0.30012068  0.49466503  0.57691164     0.06410
H1176       H  0.35041559  0.59581321  0.62807760     0.06260
O1177       O  0.23104501  0.28607395  0.18489327    -0.88180
C1178       C  0.33553854  0.27454040  0.23894388     0.87850
Mg1179     Mg  0.18148003  0.30930513  0.21459074     1.58150
O1180       O  0.28410031  0.18646886  0.23057334    -0.87910
O1181       O  0.24767060  0.23208688  0.15744818    -0.75240
C1182       C  0.17004280  0.21726689  0.38556251     0.92900
O1183       O  0.26808463  0.34166716  0.24954314    -0.75050
O1184       O  0.16690837  0.25090784  0.37095094    -0.82560
Mg1185     Mg  0.28381443  0.31926556  0.18961228     1.57960
C1186       C  0.28340255  0.11467518  0.33189653     0.92820
O1187       O  0.31039339  0.30763710  0.12979325    -0.80820
H1188       H  0.25915062  0.14520066  0.19927616    -0.06170
C1189       C  0.27538990  0.23902154  0.33666748     0.87760
O1190       O  0.16423334  0.25146879  0.23558468    -0.75330
O1191       O  0.31217999  0.26868470  0.21303540    -0.88100
O1192       O  0.30804672  0.13045043  0.30982411    -0.80910
C1193       C  0.38310814  0.16775595  0.21613901     0.92940
C1194       C  0.33096459  0.28145859  0.11443217     0.92790
Mg1195     Mg  0.21671588  0.17873729  0.31026671     1.57950
O1196       O  0.19089594  0.19115171  0.37038555    -0.80830
O1197       O  0.23271741  0.15615260  0.25003369    -0.75070
O1198       O  0.36724841  0.18870150  0.19064791    -0.80910
O1199       O  0.25186904  0.37045750  0.16383066    -0.82620
O1200       O  0.13242042  0.30974704  0.30717349    -0.80940
C1201       C  0.25908818  0.16179942  0.22552671     0.87230
O1202       O  0.18660449  0.22826459  0.28744634    -0.88080
O1203       O  0.26902396  0.21353558  0.31286660    -0.88190
O1204       O  0.25222985  0.26673655  0.34156150    -0.75240
Mg1205     Mg  0.30734771  0.21553933  0.17979474     1.57970
O1206       O  0.36940140  0.16478013  0.24997766    -0.82620
H1207       H  0.19851107  0.26076487  0.14498315    -0.06340
O1208       O  0.21540840  0.31335226  0.26805069    -0.87890
H1209       H  0.24143533  0.35343326  0.29993722    -0.06170
H1210       H  0.22049491  0.23839613  0.24285054    -0.06340
C1211       C  0.24120162  0.33700940  0.27358224     0.87200
C1212       C  0.22480099  0.26020344  0.16144932     0.87790
C1213       C  0.19149886  0.23614572  0.25356965     0.87840
H1214       H  0.30186567  0.23836906  0.35283687    -0.06320
O1215       O  0.33999348  0.25081034  0.26620962    -0.75350
Mg1216     Mg  0.19234419  0.28277017  0.31939515     1.58000
H1217       H  0.35175535  0.30111273  0.23904265    -0.06340
C1218       C  0.21804632  0.38446472  0.16636152     0.92820
O1219       O  0.13093206  0.33479104  0.24794348    -0.82580
C1220       C  0.11696919  0.33121508  0.28167827     0.92880
O1221       O  0.33334558  0.24758400  0.12860770    -0.82560
Mg1222     Mg  0.31866958  0.19061163  0.28276953     1.58180
O1223       O  0.19201453  0.36878423  0.18678089    -0.80900
O1224       O  0.24968349  0.12832421  0.33623486    -0.82590
C1225       C  0.88233931  0.35365260  0.09241304     0.03300
C1226       C  0.85686002  0.38459771  0.08929031    -0.12850
C1227       C  0.85438082  0.41160387  0.11862651     0.00800
C1228       C  0.87836325  0.40902296  0.15050680    -0.11380
C1229       C  0.90485656  0.37890489  0.15324384     0.03290
C1230       C  0.90639613  0.35098882  0.12438755    -0.10800
H1231       H  0.83777724  0.38685619  0.06482963     0.08880
H1232       H  0.87609626  0.43019355  0.17327227     0.06410
H1233       H  0.92625381  0.32716975  0.12689842     0.06260
C1234       C  0.89428916  0.16853261  0.96131523     0.03300
C1235       C  0.89353645  0.19758348  0.98889711    -0.12850
C1236       C  0.87404511  0.23193533  0.98196461     0.00800
C1237       C  0.85462438  0.23763499  0.94752364    -0.11380
C1238       C  0.85352181  0.20874303  0.91976199     0.03290
C1239       C  0.87380012  0.17388576  0.92647994    -0.10800
H1240       H  0.90872550  0.19377385  0.01578803     0.08880
H1241       H  0.84034146  0.26491285  0.94232894     0.06410
H1242       H  0.87384545  0.15143401  0.90490031     0.06260
C1243       C  0.04547801  0.39986124  0.33024200     0.03300
C1244       C  0.07835063  0.37633291  0.32470104    -0.12850
C1245       C  0.08181938  0.35343690  0.29109644     0.00800
C1246       C  0.05241894  0.35449062  0.26392083    -0.11380
C1247       C  0.02008267  0.37743129  0.26983825     0.03290
C1248       C  0.01648054  0.39969515  0.30285055    -0.10800
H1249       H  0.10104246  0.37624577  0.34592998     0.08880
H1250       H  0.05480103  0.33770377  0.23778387     0.06410
H1251       H  0.99096035  0.41710467  0.30711005     0.06260
C1252       C  0.70835832  0.57928529  0.14926360     0.03300
C1253       C  0.67445117  0.57488277  0.12689534    -0.12850
C1254       C  0.67161856  0.54455239  0.09948283     0.00800
C1255       C  0.70217794  0.51898675  0.09542505    -0.11380
C1256       C  0.73520370  0.52350943  0.11750571     0.03290
C1257       C  0.73847198  0.55347175  0.14387571    -0.10800
H1258       H  0.65098513  0.59506705  0.13025876     0.08880
H1259       H  0.70004572  0.49502617  0.07555112     0.06410
H1260       H  0.76461151  0.55647876  0.16052886     0.06260
C1261       C  0.90989296  0.87690555  0.85273797     0.03300
C1262       C  0.89995469  0.84258810  0.87188805    -0.12850
C1263       C  0.86901478  0.84181422  0.89741304     0.00800
C1264       C  0.84421806  0.87311863  0.89936864    -0.11380
C1265       C  0.85288182  0.90683300  0.87979739     0.03290
C1266       C  0.88709909  0.90973369  0.85931546    -0.10800
H1267       H  0.91610476  0.81652247  0.86784416     0.08880
H1268       H  0.81868454  0.87149919  0.91711318     0.06410
H1269       H  0.89464198  0.93752926  0.84751026     0.06260
C1270       C  0.08627119  0.85697359  0.70599630     0.03300
C1271       C  0.07916142  0.87724793  0.67155676    -0.12850
C1272       C  0.04387329  0.89670348  0.66654092     0.00800
C1273       C  0.01536356  0.89232116  0.69420685    -0.11380
C1274       C  0.02406335  0.87734570  0.73066724     0.03290
C1275       C  0.06032249  0.86039592  0.73618710    -0.10800
H1276       H  0.10058938  0.87773143  0.64904756     0.08880
H1277       H  0.98672445  0.90175746  0.68709564     0.06410
H1278       H  0.06881417  0.84899655  0.76374287     0.06260
C1279       C  0.71060186  0.08125240  0.85418764     0.03300
C1280       C  0.67582852  0.07548152  0.87481792    -0.12850
C1281       C  0.67076275  0.04174034  0.89750467     0.00800
C1282       C  0.70007536  0.01434341  0.89857053    -0.11380
C1283       C  0.73457824  0.02075089  0.87934147     0.03290
C1284       C  0.73967797  0.05392151  0.85746546    -0.10800
H1285       H  0.65317823  0.09679363  0.87326663     0.08880
H1286       H  0.69609736  0.98785701  0.91458950     0.06410
H1287       H  0.76670923  0.05833894  0.84263702     0.06260
C1288       C  0.84973055  0.70508775  0.08061740     0.03300
C1289       C  0.84454293  0.73153375  0.05096372    -0.12850
C1290       C  0.86609378  0.72871293  0.01715136     0.00800
C1291       C  0.89146222  0.69793902  0.01209831    -0.11380
C1292       C  0.89578407  0.66982720  0.04016210     0.03290
C1293       C  0.87543725  0.67380069  0.07523771    -0.10800
H1294       H  0.82387028  0.75459888  0.05446654     0.08880
H1295       H  0.90821273  0.69576449  0.98597026     0.06410
H1296       H  0.87872673  0.65236298  0.09757054     0.06260
O1297       O  0.21131707  0.70736060  0.70835702    -0.88180
C1298       C  0.32689948  0.73126865  0.70255431     0.87850
Mg1299     Mg  0.16856169  0.75277892  0.70233671     1.58150
O1300       O  0.29210085  0.70930879  0.79510330    -0.87910
O1301       O  0.23081690  0.66072345  0.74565358    -0.75240
C1302       C  0.21573824  0.88594365  0.82929456     0.92900
O1303       O  0.25248356  0.77299386  0.65786097    -0.75050
O1304       O  0.20019949  0.88230670  0.79646710    -0.82560
Mg1305     Mg  0.25453791  0.70665569  0.66405387     1.57960
C1306       C  0.32896508  0.78529739  0.88554234     0.92820
O1307       O  0.26108617  0.64097423  0.66020200    -0.80820
H1308       H  0.26747516  0.67365617  0.83284074    -0.06170
C1309       C  0.30166695  0.82610948  0.77107072     0.87760
O1310       O  0.16175235  0.75643983  0.76808757    -0.75330
O1311       O  0.29845871  0.71087570  0.70825435    -0.88100
O1312       O  0.34185509  0.76134468  0.86099535    -0.80910
C1313       C  0.38608272  0.67133776  0.78596039     0.92940
C1314       C  0.28629551  0.61667301  0.67087347     0.92790
Mg1315     Mg  0.25058478  0.79633733  0.83487529     1.57950
O1316       O  0.24019668  0.86166714  0.84177063    -0.80830
O1317       O  0.25387132  0.73011165  0.84010082    -0.75070
O1318       O  0.36200815  0.65942851  0.76111666    -0.80910
O1319       O  0.20702493  0.69930507  0.61903310    -0.82620
O1320       O  0.14450229  0.84393100  0.73820804    -0.80940
C1321       C  0.27132539  0.70296227  0.82303852     0.87230
O1322       O  0.20848474  0.79246126  0.78921562    -0.88080
O1323       O  0.29457795  0.79745790  0.79086265    -0.88190
O1324       O  0.27532426  0.84385346  0.75307266    -0.75240
Mg1325     Mg  0.29697503  0.66539099  0.75056230     1.57970
O1326       O  0.38176455  0.70326764  0.80345686    -0.82620
H1327       H  0.17489238  0.66924340  0.73134380    -0.06340
O1328       O  0.21461556  0.79486928  0.70276498    -0.87890
H1329       H  0.23997535  0.82979451  0.66480443    -0.06170
H1330       H  0.17031911  0.76925415  0.82435052    -0.06340
C1331       C  0.23558628  0.80063354  0.67481314     0.87200
C1332       C  0.20426842  0.67882775  0.72830445     0.87790
C1333       C  0.17970389  0.77289483  0.79520593     0.87840
H1334       H  0.33100763  0.83594948  0.76851589    -0.06320
O1335       O  0.34378622  0.74846274  0.72993629    -0.75350
Mg1336     Mg  0.20942428  0.83848571  0.74771184     1.58000
H1337       H  0.33732192  0.73501756  0.67358337    -0.06340
C1338       C  0.17568754  0.71734081  0.61376212     0.92820
O1339       O  0.12544840  0.80216737  0.69369044    -0.82580
C1340       C  0.12097682  0.83337370  0.71234287     0.92880
O1341       O  0.30500697  0.62082949  0.70196717    -0.82560
Mg1342     Mg  0.33757777  0.75206812  0.79571006     1.58180
O1343       O  0.16403939  0.74317831  0.63699418    -0.80900
O1344       O  0.29711545  0.80270665  0.88100728    -0.82590
C1345       C  0.82490837  0.93822088  0.87945328     0.00010
C1346       C  0.81032059  0.95151474  0.91450392    -0.11860
C1347       C  0.78056715  0.97825523  0.91532712     0.02250
C1348       C  0.76538405  0.99210498  0.88048026    -0.00070
C1349       C  0.78034281  0.97913666  0.84547724    -0.11800
C1350       C  0.80985742  0.95228256  0.84462340     0.02130
H1351       H  0.82193646  0.94056264  0.94123807     0.15110
H1352       H  0.76834504  0.98952217  0.81867909     0.15110
C1353       C  0.82266692  0.93833911  0.80769681     0.36760
C1354       C  0.76649718  0.99113968  0.95213821     0.36670
N1355       N  0.83281634  0.92735235  0.77803968    -0.43580
N1356       N  0.75506083  0.00115504  0.98166767    -0.43580
C1357       C  0.86581629  0.81180662  0.92682900     0.00010
C1358       C  0.86528950  0.82412770  0.96515361    -0.11860
C1359       C  0.86484071  0.79777083  0.99508190     0.02250
C1360       C  0.86313220  0.75801680  0.98674242    -0.00070
C1361       C  0.86251998  0.74574469  0.94825224    -0.11800
C1362       C  0.86527767  0.77220303  0.91833394     0.02130
H1363       H  0.86712317  0.85465011  0.97175730     0.15110
H1364       H  0.86134345  0.71524800  0.94152742     0.15110
C1365       C  0.86936440  0.75788260  0.87969261     0.36760
C1366       C  0.86902513  0.81251303  0.03363766     0.36670
N1367       N  0.87368464  0.74629037  0.84887220    -0.43580
N1368       N  0.87237495  0.82450775  0.06443111    -0.43580
C1369       C  0.94146648  0.87825961  0.82372789     0.00010
C1370       C  0.93884148  0.90509502  0.79353325    -0.11860
C1371       C  0.96693664  0.90769805  0.76536029     0.02250
C1372       C  0.99562580  0.87888268  0.76276912    -0.00070
C1373       C  0.99775238  0.85141239  0.79247331    -0.11800
C1374       C  0.97336784  0.85298768  0.82412157     0.02130
H1375       H  0.91497311  0.92487039  0.79148711     0.15110
H1376       H  0.01894598  0.82867330  0.79194921     0.15110
C1377       C  0.98401750  0.83012209  0.85707737     0.36760
C1378       C  0.96592797  0.94151170  0.74117136     0.36670
N1379       N  0.99297751  0.81177681  0.88331504    -0.43580
N1380       N  0.96494442  0.96843892  0.72160654    -0.43580
C1381       C  0.87560704  0.26286852  0.01030082     0.00010
C1382       C  0.91169209  0.27668474  0.02140357    -0.11860
C1383       C  0.91481739  0.30662005  0.04774336     0.02250
C1384       C  0.88117927  0.32258011  0.06382574    -0.00070
C1385       C  0.84507618  0.30830046  0.05285760    -0.11800
C1386       C  0.84199819  0.27895014  0.02593617     0.02130
H1387       H  0.93747001  0.26446447  0.00884759     0.15110
H1388       H  0.81912888  0.31989414  0.06562653     0.15110
C1389       C  0.80417370  0.26554032  0.01532003     0.36760
C1390       C  0.95273256  0.32082360  0.05678730     0.36670
N1391       N  0.77386327  0.25509048  0.00657322    -0.43580
N1392       N  0.98318824  0.33180560  0.06428375    -0.43580
C1393       C  0.93259370  0.37816869  0.18493998     0.00010
C1394       C  0.95358990  0.41188315  0.19229778    -0.11860
C1395       C  0.98218946  0.41225495  0.22009282     0.02250
C1396       C  0.98985629  0.37847360  0.24099236    -0.00070
C1397       C  0.96874721  0.34491596  0.23419537    -0.11800
C1398       C  0.94010742  0.34445634  0.20638757     0.02130
H1399       H  0.94846868  0.43764716  0.17542769     0.15110
H1400       H  0.97479607  0.31906010  0.25062635     0.15110
C1401       C  0.91928819  0.30903018  0.20042845     0.36760
C1402       C  0.00445610  0.44695895  0.22548885     0.36670
N1403       N  0.90329944  0.28030526  0.19519626    -0.43580
N1404       N  0.02247518  0.47463400  0.22983192    -0.43580
C1405       C  0.82371097  0.44006917  0.11780835     0.00010
C1406       C  0.82674221  0.47165501  0.09313864    -0.11860
C1407       C  0.79782948  0.49940654  0.09221635     0.02250
C1408       C  0.76536100  0.49468482  0.11574601    -0.00070
C1409       C  0.76188781  0.46253287  0.13961134    -0.11800
C1410       C  0.79093408  0.43517547  0.14076307     0.02130
H1411       H  0.85171332  0.47452689  0.07494944     0.15110
H1412       H  0.73664237  0.45908419  0.15753009     0.15110
C1413       C  0.78643759  0.40183682  0.16491473     0.36760
C1414       C  0.80209247  0.53243272  0.06740030     0.36670
N1415       N  0.78349057  0.37473282  0.18389685    -0.43580
N1416       N  0.80562239  0.55891879  0.04754513    -0.43580
C1417       C  0.11759726  0.32241558  0.56631601     0.00010
C1418       C  0.11904641  0.33300945  0.52757490    -0.11860
C1419       C  0.11961052  0.30514965  0.49885303     0.02250
C1420       C  0.11989807  0.26567402  0.50896123    -0.00070
C1421       C  0.11814561  0.25515098  0.54774696    -0.11800
C1422       C  0.11614394  0.28299154  0.57634207     0.02130
H1423       H  0.11912344  0.36326187  0.51971449     0.15110
H1424       H  0.11834798  0.22496338  0.55583512     0.15110
C1425       C  0.11182663  0.27004908  0.61544437     0.36760
C1426       C  0.11864455  0.31813118  0.45948767     0.36670
N1427       N  0.10668198  0.25995407  0.64663761    -0.43580
N1428       N  0.11814851  0.32866978  0.42800076    -0.43580
C1429       C  0.23469889  0.49683584  0.61642445     0.00010
C1430       C  0.23898986  0.46580662  0.64153165    -0.11860
C1431       C  0.21117196  0.43729061  0.64315951     0.02250
C1432       C  0.17881446  0.43971060  0.61928950    -0.00070
C1433       C  0.17458983  0.47058832  0.59377487    -0.11800
C1434       C  0.20242719  0.49947750  0.59233057     0.02130
H1435       H  0.26404331  0.46404941  0.65995161     0.15110
H1436       H  0.14946024  0.47226072  0.57548224     0.15110
C1437       C  0.19738227  0.53143437  0.56631557     0.36760
C1438       C  0.21638682  0.40560229  0.66920978     0.36670
N1439       N  0.19327954  0.55706869  0.54549036    -0.43580
N1440       N  0.22011839  0.38001521  0.69001266    -0.43580
C1441       C  0.01755970  0.36924413  0.74600836     0.00010
C1442       C  0.00852186  0.39123189  0.71379957    -0.11860
C1443       C  0.03533425  0.39624224  0.68504160     0.02250
C1444       C  0.07128342  0.37844222  0.68795848    -0.00070
C1445       C  0.08086555  0.35688465  0.72052401    -0.11800
C1446       C  0.05418754  0.35260283  0.75009135     0.02130
H1447       H  0.98059281  0.40492144  0.71146013     0.15110
H1448       H  0.10880506  0.34324303  0.72255108     0.15110
C1449       C  0.06460228  0.33091692  0.78385433     0.36760
C1450       C  0.02558733  0.42022661  0.65306002     0.36670
N1451       N  0.07301862  0.31371486  0.81101168    -0.43580
N1452       N  0.01781769  0.43998327  0.62768297    -0.43580
C1453       C  0.38318010  0.17867154  0.93311744     0.00010
C1454       C  0.38184122  0.16729502  0.97155683    -0.11860
C1455       C  0.38257834  0.19467819  0.00067520     0.02250
C1456       C  0.38240760  0.23427835  0.99109233    -0.00070
C1457       C  0.38396541  0.24544012  0.95242097    -0.11800
C1458       C  0.38561344  0.21797726  0.92349453     0.02130
H1459       H  0.38125553  0.13687030  0.97875190     0.15110
H1460       H  0.38409570  0.27572130  0.94471142     0.15110
C1461       C  0.39092694  0.23082995  0.88447059     0.36760
C1462       C  0.38533590  0.18120069  0.03979200     0.36670
N1463       N  0.39664130  0.24101481  0.85340247    -0.43580
N1464       N  0.38757069  0.17031755  0.07108573    -0.43580
C1465       C  0.43871298  0.11842802  0.81806325     0.00010
C1466       C  0.44484656  0.15388550  0.79965019    -0.11860
C1467       C  0.47132414  0.15699126  0.77007272     0.02250
C1468       C  0.49198447  0.12413202  0.75881218    -0.00070
C1469       C  0.48549427  0.08855826  0.77656493    -0.11800
C1470       C  0.45886762  0.08535648  0.80604506     0.02130
H1471       H  0.42850548  0.17909925  0.80810817     0.15110
H1472       H  0.50155079  0.06334760  0.76750225     0.15110
C1473       C  0.45296662  0.04798454  0.82320536     0.36760
C1474       C  0.47599448  0.19371350  0.75106971     0.36670
N1475       N  0.44780615  0.01773330  0.83615313    -0.43580
N1476       N  0.47959389  0.22313292  0.73584866    -0.43580
C1477       C  0.25885486  0.01229381  0.87604149     0.00010
C1478       C  0.27031194  0.02787587  0.84084457    -0.11860
C1479       C  0.29910773  0.05558658  0.83919855     0.02250
C1480       C  0.31742984  0.06737236  0.87343269    -0.00070
C1481       C  0.30550815  0.05186073  0.90868373    -0.11800
C1482       C  0.27611223  0.02484430  0.91031757     0.02130
H1483       H  0.25644951  0.01847172  0.81458860     0.15110
H1484       H  0.31968640  0.06033935  0.93506440     0.15110
C1485       C  0.26495931  0.00981839  0.94733617     0.36760
C1486       C  0.30858031  0.07154259  0.80211898     0.36670
N1487       N  0.25583561  0.99813726  0.97706044    -0.43580
N1488       N  0.31639412  0.08373351  0.77223070    -0.43580
C1489       C  0.19537605  0.92264445  0.36341862     0.00010
C1490       C  0.23083980  0.91817764  0.34523376    -0.11860
C1491       C  0.25800424  0.94760279  0.34708009     0.02250
C1492       C  0.24890683  0.98188636  0.36671434    -0.00070
C1493       C  0.21342116  0.98617786  0.38494097    -0.11800
C1494       C  0.18673496  0.95650510  0.38385260     0.02130
H1495       H  0.23720675  0.89180212  0.32983282     0.15110
H1496       H  0.20695379  0.01244551  0.40055387     0.15110
C1497       C  0.15121446  0.96065206  0.40483380     0.36760
C1498       C  0.29471710  0.94219301  0.32861409     0.36670
N1499       N  0.12285493  0.96329082  0.42188220    -0.43580
N1500       N  0.32418119  0.93772276  0.31394045    -0.43580
C1501       C  0.13496625  0.75788855  0.48489986     0.00010
C1502       C  0.11218260  0.79093189  0.48749709    -0.11860
C1503       C  0.11219354  0.81761293  0.45779709     0.02250
C1504       C  0.13591158  0.81139705  0.42575794    -0.00070
C1505       C  0.15881768  0.77843500  0.42322203    -0.11800
C1506       C  0.15810287  0.75122640  0.45249470     0.02130
H1507       H  0.09404680  0.79546382  0.51240091     0.15110
H1508       H  0.17668501  0.77378144  0.39814986     0.15110
C1509       C  0.18080864  0.71663373  0.44857436     0.36760
C1510       C  0.08756933  0.85090868  0.46031534     0.36670
N1511       N  0.19883073  0.68882193  0.44525366    -0.43580
N1512       N  0.06774455  0.87758451  0.46145905    -0.43580
C1513       C  0.01092187  0.87201357  0.26296896     0.00010
C1514       C  0.02423218  0.90664669  0.27876425    -0.11860
C1515       C  0.05463246  0.90669409  0.30469838     0.02250
C1516       C  0.07257525  0.87148387  0.31431825    -0.00070
C1517       C  0.05877498  0.83687243  0.29879967    -0.11800
C1518       C  0.02792794  0.83676908  0.27361062     0.02130
H1519       H  0.01068558  0.93365930  0.27085736     0.15110
H1520       H  0.07256345  0.80977115  0.30594336     0.15110
C1521       C  0.01518371  0.80022263  0.25833216     0.36760
C1522       C  0.06598645  0.94301848  0.32150879     0.36670
N1523       N  0.00482188  0.77085024  0.24649198    -0.43580
N1524       N  0.07505341  0.97224754  0.33469170    -0.43580
C1525       C  0.86146682  0.69028777  0.42436942     0.00010
C1526       C  0.89778697  0.69995972  0.43897073    -0.11860
C1527       C  0.90181710  0.72707777  0.46794929     0.02250
C1528       C  0.86884056  0.74455627  0.48334510    -0.00070
C1529       C  0.83240562  0.73455642  0.46952903    -0.11800
C1530       C  0.82837165  0.70748915  0.44027466     0.02130
H1531       H  0.92313430  0.68539469  0.42840959     0.15110
H1532       H  0.80704778  0.74787336  0.48182170     0.15110
C1533       C  0.79006032  0.69769840  0.42796118     0.36760
C1534       C  0.93988698  0.73526744  0.48232221     0.36670
N1535       N  0.75913615  0.68939587  0.41913231    -0.43580
N1536       N  0.97039076  0.74193827  0.49367058    -0.43580
C1537       C  0.92796879  0.62893680  0.31431875     0.00010
C1538       C  0.92677420  0.60318433  0.28318317    -0.11860
C1539       C  0.95768912  0.59914559  0.25827018     0.02250
C1540       C  0.98804655  0.62642104  0.25906883    -0.00070
C1541       C  0.98867518  0.65311895  0.28937748    -0.11800
C1542       C  0.96123711  0.65224860  0.31843991     0.02130
H1543       H  0.90216258  0.58490852  0.27824132     0.15110
H1544       H  0.01112897  0.67450586  0.29152386     0.15110
C1545       C  0.97062640  0.67342768  0.35283768     0.36760
C1546       C  0.95784120  0.56498783  0.23449538     0.36670
N1547       N  0.97953825  0.69050854  0.37991363    -0.43580
N1548       N  0.95749322  0.53756883  0.21559030    -0.43580
C1549       C  0.81102943  0.56831759  0.37032731     0.00010
C1550       C  0.77990537  0.57314050  0.34536687    -0.11860
C1551       C  0.75118932  0.54522885  0.34348444     0.02250
C1552       C  0.75398015  0.51236996  0.36690308    -0.00070
C1553       C  0.78526987  0.50743643  0.39146064    -0.11800
C1554       C  0.81380679  0.53529472  0.39326706     0.02130
H1555       H  0.77807397  0.59872264  0.32756549     0.15110
H1556       H  0.78714082  0.48194344  0.40939900     0.15110
C1557       C  0.84553705  0.52962910  0.41882015     0.36760
C1558       C  0.71941270  0.55072408  0.31749250     0.36670
N1559       N  0.87111916  0.52519662  0.43930478    -0.43580
N1560       N  0.69403521  0.55521133  0.29655961    -0.43580
C1561       C  0.56248007  0.88118592  0.18373343     0.00010
C1562       C  0.54005018  0.91461288  0.18684937    -0.11860
C1563       C  0.51133458  0.91701850  0.21458155     0.02250
C1564       C  0.50476994  0.88527888  0.23873888    -0.00070
C1565       C  0.52779011  0.85248631  0.23634474    -0.11800
C1566       C  0.55692866  0.85042267  0.20940923     0.02130
H1567       H  0.54458061  0.93844739  0.16722516     0.15110
H1568       H  0.52321546  0.82866029  0.25601376     0.15110
C1569       C  0.58168297  0.81730481  0.21027224     0.36760
C1570       C  0.48867300  0.95172844  0.21732737     0.36670
N1571       N  0.60127827  0.79057843  0.21246037    -0.43580
N1572       N  0.47067246  0.97966297  0.21956862    -0.43580
C1573       C  0.60821831  0.81906984  0.06421154     0.00010
C1574       C  0.60536525  0.83110802  0.02595520    -0.11860
C1575       C  0.60406453  0.80423994  0.99630490     0.02250
C1576       C  0.60719434  0.76464108  0.00501212    -0.00070
C1577       C  0.60909794  0.75274658  0.04332513    -0.11800
C1578       C  0.60882888  0.77944769  0.07288963     0.02130
H1579       H  0.60419761  0.86161042  0.01933658     0.15110
H1580       H  0.61168770  0.72237118  0.05026491     0.15110
C1581       C  0.60979150  0.76482137  0.11147881     0.36760
C1582       C  0.59880283  0.81805422  0.95757990     0.36670
N1583       N  0.60957469  0.75146481  0.14180980    -0.43580
N1584       N  0.59460796  0.82923885  0.92659602    -0.43580
C1585       C  0.73267981  0.99019420  0.11932678     0.00010
C1586       C  0.74262705  0.95095183  0.11867938    -0.11860
C1587       C  0.71451612  0.92264064  0.11610143     0.02250
C1588       C  0.67560702  0.93344514  0.11627872    -0.00070
C1589       C  0.66547333  0.97248277  0.11605584    -0.11800
C1590       C  0.69364519  0.00095645  0.11663631     0.02130
H1591       H  0.77247945  0.94227000  0.12047016     0.15110
H1592       H  0.63541811  0.98064153  0.11510613     0.15110
C1593       C  0.68163144  0.04064525  0.11310388     0.36760
C1594       C  0.72630527  0.88287373  0.11312413     0.36670
N1595       N  0.67182923  0.07238144  0.11023254    -0.43580
N1596       N  0.73547930  0.85104929  0.10947113    -0.43580
C1597       C  0.18051571  0.56151815  0.88410868     0.00010
C1598       C  0.19477478  0.54988387  0.84835734    -0.11860
C1599       C  0.22363497  0.52238484  0.84585248     0.02250
C1600       C  0.23844550  0.50593010  0.87974267    -0.00070
C1601       C  0.22429064  0.51762257  0.91555669    -0.11800
C1602       C  0.19545826  0.54533389  0.91803414     0.02130
H1603       H  0.18379536  0.56295723  0.82229635     0.15110
H1604       H  0.23553159  0.50474140  0.94158329     0.15110
C1605       C  0.18135519  0.55608181  0.95549662     0.36760
C1606       C  0.23825562  0.51256807  0.80829141     0.36670
N1607       N  0.17033492  0.56487371  0.98556107    -0.43580
N1608       N  0.24975161  0.50465154  0.77815798    -0.43580
C1609       C  0.06301027  0.61738129  0.82602568     0.00010
C1610       C  0.06739270  0.59231303  0.79457923    -0.11860
C1611       C  0.03975211  0.58998001  0.76583827     0.02250
C1612       C  0.00995128  0.61778420  0.76427987    -0.00070
C1613       C  0.00663651  0.64384862  0.79509501    -0.11800
C1614       C  0.02998645  0.64106034  0.82723003     0.02130
H1615       H  0.09213744  0.57365379  0.79218263     0.15110
H1616       H  0.98507288  0.66623082  0.79527850     0.15110
C1617       C  0.01705121  0.66074494  0.86143129     0.36760
C1618       C  0.04215506  0.55714887  0.74044407     0.36670
N1619       N  0.00637621  0.67655237  0.88865396    -0.43580
N1620       N  0.04439243  0.53063631  0.72041063    -0.43580
C1621       C  0.12972679  0.74040938  0.99102480     0.00010
C1622       C  0.12928195  0.75249200  0.95260344    -0.11860
C1623       C  0.12823826  0.72581969  0.92290247     0.02250
C1624       C  0.13160007  0.68624442  0.93143894    -0.00070
C1625       C  0.13233999  0.67417949  0.96984514    -0.11800
C1626       C  0.13007931  0.70067939  0.99959129     0.02130
H1627       H  0.12835351  0.78295363  0.94568531     0.15110
H1628       H  0.13259019  0.64365297  0.97662651     0.15110
C1629       C  0.12538245  0.68604673  0.03812983     0.36760
C1630       C  0.11979860  0.73995947  0.88497369     0.36670
N1631       N  0.12144979  0.67417869  0.06890188    -0.43580
N1632       N  0.11019223  0.75131944  0.85530812    -0.43580
C1633       C  0.23849495  0.00969897  0.12479463     0.00010
C1634       C  0.20001648  0.99764766  0.12439794    -0.11860
C1635       C  0.17034059  0.02443122  0.12556576     0.02250
C1636       C  0.17918067  0.06400930  0.12579779    -0.00070
C1637       C  0.21746788  0.07620669  0.12605439    -0.11800
C1638       C  0.24720420  0.04947073  0.12618091     0.02130
H1639       H  0.19310769  0.96718743  0.12322144     0.15110
H1640       H  0.22406312  0.10676292  0.12708413     0.15110
C1641       C  0.28605576  0.06375658  0.12934701     0.36760
C1642       C  0.13123055  0.01061516  0.12658042     0.36670
N1643       N  0.31713059  0.07532163  0.13171506    -0.43580
N1644       N  0.09991187  0.99959498  0.12805232    -0.43580
C1645       C  0.12515653  0.23819913  0.01285114     0.00010
C1646       C  0.09010893  0.22028068  0.02093672    -0.11860
C1647       C  0.08788232  0.19167140  0.04877803     0.02250
C1648       C  0.12133840  0.18094588  0.06897711    -0.00070
C1649       C  0.15634885  0.19928699  0.06098231    -0.11800
C1650       C  0.15851483  0.22780428  0.03304764     0.02130
H1651       H  0.06452431  0.22855069  0.00520947     0.15110
H1652       H  0.18195769  0.19160661  0.07695012     0.15110
C1653       C  0.19486123  0.24673180  0.02641009     0.36760
C1654       C  0.05112818  0.17366785  0.05557094     0.36670
N1655       N  0.22397446  0.26189483  0.02111708    -0.43580
N1656       N  0.02151080  0.15976269  0.06140619    -0.43580
C1657       C  0.00726697  0.12096442  0.24053978     0.00010
C1658       C  0.04392033  0.13429117  0.25039663    -0.11860
C1659       C  0.07300031  0.13515121  0.22311804     0.02250
C1660       C  0.06507993  0.12281008  0.18559999    -0.00070
C1661       C  0.02862731  0.10917651  0.17571866    -0.11800
C1662       C  0.99960425  0.10786325  0.20308179     0.02130
H1663       H  0.04961326  0.14435456  0.27930529     0.15110
H1664       H  0.02310213  0.09923113  0.14674483     0.15110
C1665       C  0.96278161  0.09192025  0.19249996     0.36760
C1666       C  0.11051747  0.14900242  0.23397439     0.36670
N1667       N  0.93336468  0.07897782  0.18401731    -0.43580
N1668       N  0.14067639  0.15988595  0.24261898    -0.43580
C1669       C  0.86802518  0.24930488  0.51612170     0.00010
C1670       C  0.83230691  0.23945135  0.53189840    -0.11860
C1671       C  0.82971071  0.21175841  0.56081075     0.02250
C1672       C  0.86351828  0.19410673  0.57449898    -0.00070
C1673       C  0.89913102  0.20439763  0.55875452    -0.11800
C1674       C  0.90171344  0.23157453  0.52974709     0.02130
H1675       H  0.80640683  0.25306594  0.52119440     0.15110
H1676       H  0.92500330  0.18967149  0.56785704     0.15110
C1677       C  0.93900809  0.23889638  0.51302580     0.36760
C1678       C  0.79215303  0.20144515  0.57494796     0.36670
N1679       N  0.96892481  0.24468614  0.49978039    -0.43580
N1680       N  0.76184565  0.19280486  0.58546721    -0.43580
C1681       C  0.93321601  0.12474835  0.67723442     0.00010
C1682       C  0.93081309  0.09726604  0.70676115    -0.11860
C1683       C  0.95925884  0.09412360  0.73464325     0.02250
C1684       C  0.98850910  0.12251658  0.73707233    -0.00070
C1685       C  0.99036636  0.15049329  0.70787099    -0.11800
C1686       C  0.96511715  0.15000582  0.67689712     0.02130
H1687       H  0.90684671  0.07745859  0.70820687     0.15110
H1688       H  0.01191039  0.17291833  0.70840493     0.15110
C1689       C  0.97474503  0.17412086  0.64450631     0.36760
C1690       C  0.95793119  0.06030009  0.75878705     0.36670
N1691       N  0.98325981  0.19346906  0.61884363    -0.43580
N1692       N  0.95654660  0.03339162  0.77835482    -0.43580
C1693       C  0.82221998  0.06285216  0.61339325     0.00010
C1694       C  0.80935429  0.04978255  0.64924121    -0.11860
C1695       C  0.78060613  0.02222548  0.65197395     0.02250
C1696       C  0.76422066  0.00714339  0.61819065    -0.00070
C1697       C  0.77715830  0.01990618  0.58226435    -0.11800
C1698       C  0.80602212  0.04764126  0.57955954     0.02130
H1699       H  0.82102685  0.06209069  0.67537368     0.15110
H1700       H  0.76482192  0.00795591  0.55629050     0.15110
C1701       C  0.81855849  0.05957224  0.54191983     0.36760
C1702       C  0.76764541  0.01110431  0.68979611     0.36670
N1703       N  0.82816892  0.06931465  0.51166662    -0.43580
N1704       N  0.75758264  0.00210084  0.72013880    -0.43580
C1705       C  0.26243683  0.51245769  0.12765630     0.00010
C1706       C  0.27051970  0.52848683  0.16358040    -0.11860
C1707       C  0.29809519  0.55719482  0.16723447     0.02250
C1708       C  0.31794497  0.56990353  0.13434043    -0.00070
C1709       C  0.31068452  0.55263971  0.09863022    -0.11800
C1710       C  0.28289451  0.52419766  0.09497773     0.02130
H1711       H  0.25473874  0.51891655  0.18867588     0.15110
H1712       H  0.32657704  0.56166488  0.07346894     0.15110
C1713       C  0.27620820  0.50721036  0.05771254     0.36760
C1714       C  0.30462378  0.57348538  0.20475506     0.36670
N1715       N  0.27079733  0.49366172  0.02786672    -0.43580
N1716       N  0.31016859  0.58590939  0.23503697    -0.43580
C1717       C  0.48853091  0.63482692  0.24555700     0.00010
C1718       C  0.49065745  0.60869189  0.21514703    -0.11860
C1719       C  0.46251262  0.60859881  0.18695233     0.02250
C1720       C  0.43204555  0.63503494  0.18916587    -0.00070
C1721       C  0.43028010  0.66176024  0.21919191    -0.11800
C1722       C  0.45839381  0.66172352  0.24764834     0.02130
H1723       H  0.51410776  0.58815163  0.21374705     0.15110
H1724       H  0.40656559  0.68196602  0.22075845     0.15110
C1725       C  0.45550571  0.68887016  0.27888788     0.36760
C1726       C  0.46527869  0.58131641  0.15597510     0.36670
N1727       N  0.45307904  0.71063082  0.30392106    -0.43580
N1728       N  0.46703008  0.55960348  0.13093737    -0.43580
C1729       C  0.36939954  0.74240188  0.01498805     0.00010
C1730       C  0.36840782  0.70296460  0.00649591    -0.11860
C1731       C  0.36688771  0.67580302  0.03573430     0.02250
C1732       C  0.36768610  0.68813900  0.07430918    -0.00070
C1733       C  0.36810434  0.72745717  0.08290565    -0.11800
C1734       C  0.36821308  0.75471192  0.05368680     0.02130
H1735       H  0.36929177  0.69328401  0.97692275     0.15110
H1736       H  0.36777348  0.73683327  0.11259333     0.15110
C1737       C  0.36603586  0.79487488  0.06445101     0.36760
C1738       C  0.36451894  0.63564232  0.02521557     0.36670
N1739       N  0.36453248  0.82699674  0.07326455    -0.43580
N1740       N  0.36149287  0.60356357  0.01674441    -0.43580
C1741       C  0.67856686  0.43231704  0.87517353     0.00010
C1742       C  0.68588714  0.45297374  0.90901916    -0.11860
C1743       C  0.71467309  0.48071252  0.91022425     0.02250
C1744       C  0.73654848  0.48787978  0.87712360    -0.00070
C1745       C  0.72911916  0.46776546  0.84314985    -0.11800
C1746       C  0.70029100  0.43999923  0.84185965     0.02130
H1747       H  0.66872932  0.44769096  0.93446002     0.15110
H1748       H  0.74599900  0.47377081  0.81767887     0.15110
C1749       C  0.69393274  0.41979534  0.80623734     0.36760
C1750       C  0.72044059  0.50225935  0.94521929     0.36670
N1751       N  0.68836248  0.40412700  0.77748725    -0.43580
N1752       N  0.72493979  0.51957595  0.97322840    -0.43580
C1753       C  0.55816219  0.37598093  0.82205376     0.00010
C1754       C  0.54395829  0.41169796  0.80926331    -0.11860
C1755       C  0.51708745  0.41370316  0.77975425     0.02250
C1756       C  0.50345541  0.37939760  0.76308185    -0.00070
C1757       C  0.51699356  0.34382734  0.77606762    -0.11800
C1758       C  0.54395262  0.34165435  0.80527007     0.02130
H1759       H  0.55377863  0.43823704  0.82244151     0.15110
H1760       H  0.50658767  0.31743315  0.76294666     0.15110
C1761       C  0.55594624  0.30350314  0.81638942     0.36760
C1762       C  0.50363715  0.45114885  0.76764219     0.36670
N1763       N  0.56347511  0.27208926  0.82449237    -0.43580
N1764       N  0.49315633  0.48118616  0.75773362    -0.43580
C1765       C  0.62298272  0.26330056  0.99480707     0.00010
C1766       C  0.62829377  0.25316165  0.95624980    -0.11860
C1767       C  0.62651894  0.28095381  0.92769388     0.02250
C1768       C  0.61975485  0.31956566  0.93771838    -0.00070
C1769       C  0.61542739  0.33012923  0.97617440    -0.11800
C1770       C  0.61668140  0.30222606  0.00489532     0.02130
H1771       H  0.63380758  0.22339636  0.94845358     0.15110
H1772       H  0.61045837  0.36007060  0.98357710     0.15110
C1773       C  0.61006500  0.31412722  0.04404085     0.36760
C1774       C  0.63233293  0.26937356  0.88840785     0.36670
N1775       N  0.60492433  0.32376380  0.07539961    -0.43580
N1776       N  0.63684357  0.26021101  0.85685222    -0.43580
C1777       C  0.48982039  0.87539427  0.73859956     0.00010
C1778       C  0.47288997  0.83986805  0.72997731    -0.11860
C1779       C  0.44342742  0.83756149  0.70318203     0.02250
C1780       C  0.43079450  0.87141677  0.68467872    -0.00070
C1781       C  0.44814564  0.90690764  0.69322087    -0.11800
C1782       C  0.47748431  0.90917947  0.72008235     0.02130
H1783       H  0.48253288  0.81397806  0.74453840     0.15110
H1784       H  0.43912665  0.93284798  0.67840622     0.15110
C1785       C  0.49512239  0.94616593  0.72738918     0.36760
C1786       C  0.42673154  0.80027443  0.69557921     0.36670
N1787       N  0.50920128  0.97579665  0.73326330    -0.43580
N1788       N  0.41404431  0.77016466  0.68910014    -0.43580
C1789       C  0.37551155  0.81968592  0.56393270     0.00010
C1790       C  0.41075542  0.81012360  0.54680765    -0.11860
C1791       C  0.41287765  0.78113328  0.51927414     0.02250
C1792       C  0.37910522  0.76198133  0.50803309    -0.00070
C1793       C  0.34387131  0.77178438  0.52461524    -0.11800
C1794       C  0.34174719  0.80015995  0.55262606     0.02130
H1795       H  0.43672143  0.82524751  0.55506932     0.15110
H1796       H  0.31798838  0.75665026  0.51603277     0.15110
C1797       C  0.30475828  0.80747506  0.56991883     0.36760
C1798       C  0.44978353  0.77192902  0.50273656     0.36670
N1799       N  0.27494700  0.81348710  0.58327767    -0.43580
N1800       N  0.47940950  0.76439248  0.48972035    -0.43580
C1801       C  0.25669532  0.98678849  0.62666084     0.00010
C1802       C  0.29526371  0.99813297  0.63003344    -0.11860
C1803       C  0.32435584  0.97089483  0.63238276     0.02250
C1804       C  0.31524359  0.93158169  0.62855057    -0.00070
C1805       C  0.27692655  0.92000369  0.62499272    -0.11800
C1806       C  0.24749352  0.94712504  0.62508953     0.02130
H1807       H  0.30277963  0.02843875  0.63130592     0.15110
H1808       H  0.27000654  0.88957159  0.62317298     0.15110
C1809       C  0.20840526  0.93319961  0.62545072     0.36760
C1810       C  0.36292870  0.98404352  0.63999253     0.36670
N1811       N  0.17712989  0.92194681  0.62570277    -0.43580
N1812       N  0.39351354  0.99450609  0.64762769    -0.43580
C1813       C  0.62514939  0.23984964  0.48876202     0.00010
C1814       C  0.62186263  0.25293875  0.45081048    -0.11860
C1815       C  0.62096533  0.22714199  0.42040352     0.02250
C1816       C  0.62703462  0.18762383  0.42750003    -0.00070
C1817       C  0.63021406  0.17435206  0.46531739    -0.11800
C1818       C  0.62803837  0.19986588  0.49600973     0.02130
H1819       H  0.61927488  0.28348298  0.44476878     0.15110
H1820       H  0.63290800  0.14370313  0.47089990     0.15110
C1821       C  0.62671640  0.18388341  0.53426938     0.36760
C1822       C  0.61120242  0.24196625  0.38298824     0.36670
N1823       N  0.62565556  0.17100097  0.56486927    -0.43580
N1824       N  0.60117104  0.25377771  0.35362361    -0.43580
C1825       C  0.56718413  0.12433219  0.31500944     0.00010
C1826       C  0.57742398  0.12129082  0.27633660    -0.11860
C1827       C  0.54950760  0.12040578  0.24792194     0.02250
C1828       C  0.51023363  0.12044825  0.25841522    -0.00070
C1829       C  0.50011150  0.12266420  0.29729845    -0.11800
C1830       C  0.52809252  0.12607530  0.32545884     0.02130
H1831       H  0.60750542  0.12129056  0.26820741     0.15110
H1832       H  0.47014659  0.12276761  0.30574889     0.15110
C1833       C  0.51570426  0.13389902  0.36417225     0.36760
C1834       C  0.56239211  0.12170712  0.20852841     0.36670
N1835       N  0.50602566  0.14243181  0.39474939    -0.43580
N1836       N  0.57295599  0.12255008  0.17706450    -0.43580
C1837       C  0.74329885  0.01473164  0.36776831     0.00010
C1838       C  0.72096794  0.02038591  0.40063268    -0.11860
C1839       C  0.69339466  0.04929031  0.40163379     0.02250
C1840       C  0.68787797  0.07276776  0.36914755    -0.00070
C1841       C  0.71028249  0.06714645  0.33620251    -0.11800
C1842       C  0.73826625  0.03840915  0.33540353     0.02130
H1843       H  0.72517279  0.00210738  0.42553700     0.15110
H1844       H  0.70616266  0.08552825  0.31137288     0.15110
C1845       C  0.76231793  0.03464442  0.30187635     0.36760
C1846       C  0.67087668  0.05396482  0.43606181     0.36670
N1847       N  0.78174243  0.03184767  0.27509136    -0.43580
N1848       N  0.65312669  0.05809618  0.46378231    -0.43580
C1849       C  0.68587077  0.56574106  0.62615497     0.00010
C1850       C  0.67634162  0.52945959  0.61150102    -0.11860
C1851       C  0.70441079  0.50118790  0.60793891     0.02250
C1852       C  0.74215511  0.50936323  0.61996659    -0.00070
C1853       C  0.75164880  0.54585126  0.63417002    -0.11800
C1854       C  0.72373898  0.57425273  0.63702231     0.02130
H1855       H  0.64720740  0.52362311  0.60213012     0.15110
H1856       H  0.78077962  0.55193624  0.64337038     0.15110
C1857       C  0.73445595  0.61189009  0.65087683     0.36760
C1858       C  0.69426377  0.46468790  0.59074118     0.36670
N1859       N  0.74298027  0.64225030  0.66152894    -0.43580
N1860       N  0.68616184  0.43555571  0.57674544    -0.43580
C1861       C  0.62734674  0.68068171  0.56817891     0.00010
C1862       C  0.62456526  0.71915903  0.57990011    -0.11860
C1863       C  0.62528539  0.74883797  0.55306583     0.02250
C1864       C  0.62684542  0.73978598  0.51354461    -0.00070
C1865       C  0.62937185  0.70113135  0.50200869    -0.11800
C1866       C  0.63093519  0.67171251  0.52892758     0.02130
H1867       H  0.62311999  0.72602613  0.61023442     0.15110
H1868       H  0.63063224  0.69381394  0.47178973     0.15110
C1869       C  0.63786339  0.63298174  0.51547587     0.36760
C1870       C  0.62634744  0.78799722  0.56713994     0.36670
N1871       N  0.64514734  0.60224128  0.50489586    -0.43580
N1872       N  0.62715108  0.81930212  0.57857652    -0.43580
C1873       C  0.56760177  0.62102972  0.68279633     0.00010
C1874       C  0.55981385  0.65593998  0.70160289    -0.11860
C1875       C  0.53192217  0.65785742  0.73011860     0.02250
C1876       C  0.51147884  0.62432374  0.74005330    -0.00070
C1877       C  0.51928038  0.58942241  0.72151960    -0.11800
C1878       C  0.54711542  0.58744948  0.69298458     0.02130
H1879       H  0.57600370  0.68165115  0.69437531     0.15110
H1880       H  0.50329555  0.56371894  0.72922646     0.15110
C1881       C  0.55361874  0.55076601  0.67458071     0.36760
C1882       C  0.52566573  0.69412993  0.74949537     0.36670
N1883       N  0.55914336  0.52111429  0.66046301    -0.43580
N1884       N  0.52069386  0.72322359  0.76495038    -0.43580
C1885       C  0.31892057  0.43091815  0.37283995     0.00010
C1886       C  0.30863528  0.44797307  0.40786524    -0.11860
C1887       C  0.28053571  0.47639764  0.40934742     0.02250
C1888       C  0.26281227  0.48857848  0.37512314    -0.00070
C1889       C  0.27307498  0.47179906  0.34009807    -0.11800
C1890       C  0.30067230  0.44286115  0.33864138     0.02130
H1891       H  0.32287213  0.43930821  0.43415260     0.15110
H1892       H  0.25895795  0.48094800  0.31389417     0.15110
C1893       C  0.30881876  0.42549837  0.30186766     0.36760
C1894       C  0.27096360  0.49299242  0.44615730     0.36670
N1895       N  0.31559051  0.41201557  0.27227448    -0.43580
N1896       N  0.26308742  0.50599972  0.47569588    -0.43580
C1897       C  0.36999909  0.25656267  0.48823898     0.00010
C1898       C  0.40448908  0.27623941  0.48219902    -0.11860
C1899       C  0.40724030  0.30441103  0.45404293     0.02250
C1900       C  0.37483406  0.31318907  0.43133854    -0.00070
C1901       C  0.34026329  0.29321386  0.43736942    -0.11800
C1902       C  0.33760633  0.26497426  0.46568567     0.02130
H1903       H  0.42935355  0.26956403  0.49973858     0.15110
H1904       H  0.31545127  0.29937846  0.41960711     0.15110
C1905       C  0.30192544  0.24428106  0.47026803     0.36760
C1906       C  0.44361743  0.32374521  0.44944769     0.36670
N1907       N  0.27331666  0.22771009  0.47384829    -0.43580
N1908       N  0.47312489  0.33843734  0.44533207    -0.43580
C1909       C  0.49293183  0.37720079  0.26011999     0.00010
C1910       C  0.47355698  0.34262365  0.26713732    -0.11860
C1911       C  0.44561094  0.34049891  0.29547746     0.02250
C1912       C  0.43710648  0.37353431  0.31757393    -0.00070
C1913       C  0.45684019  0.40814834  0.31058105    -0.11800
C1914       C  0.48453207  0.41027885  0.28184363     0.02130
H1915       H  0.48017108  0.31727797  0.25012796     0.15110
H1916       H  0.45071380  0.43349920  0.32773170     0.15110
C1917       C  0.50448652  0.44626173  0.27574595     0.36760
C1918       C  0.42585023  0.30427893  0.30060364     0.36670
N1919       N  0.52040661  0.47511150  0.27078798    -0.43580
N1920       N  0.41054868  0.27503628  0.30511370    -0.43580
loop_ 
_geom_bond_atom_site_label_1 
_geom_bond_atom_site_label_2 
_geom_bond_distance 
_geom_bond_site_symmetry_2 
_ccdc_geom_bond_type 
O1           Mg3   2.168       .  S
O1           Mg9   2.153       .  S
O1           C36   1.230       .  S
C2           O15   1.234       .  S
C2           O39   1.271       .  A
C2           H41   1.081       .  S
Mg3          O32   2.169       .  S
Mg3          O47   2.291       .  S
Mg3          O43   2.293       .  S
Mg3          O14   2.306       .  S
O4          Mg46   2.166       .  S
O4          Mg29   2.171       .  S
O4           C25   1.234       .  S
O5           C36   1.268       .  A
O5          Mg29   2.297       .  S
C6            O8   1.274       .  A
C6           O20   1.273       .  A
C6         C1021   1.476       .  S
O7           C35   1.272       .  A
O7           Mg9   2.318       .  S
O8          Mg40   2.305       .  S
Mg9          O15   2.197       .  S
Mg9          O23   2.328       .  S
Mg9          O11   2.307       .  S
C10          O48   1.274       .  A
C10          O16   1.274       .  A
C10         C461   1.480       .  S
O11          C18   1.275       .  A
H12          C25   1.081       .  S
C13          O27   1.236       .  S
C13          O28   1.272       .  A
C13          H38   1.081       .  S
O14          C37   1.269       .  A
O15         Mg29   2.179       .  S
O16         Mg46   2.308       .  S
C17          O30   1.274       .  A
C17          O22   1.276       .  A
C17         C297   1.482       .  S
C18          O45   1.273       .  A
C18         C624   1.476       .  S
Mg19         O26   2.179       .  S
Mg19         O27   2.170       .  S
Mg19         O20   2.290       .  S
Mg19         O21   2.303       .  S
Mg19         O48   2.302       .  S
O21          C25   1.269       .  A
O22         Mg29   2.309       .  S
O23          C42   1.275       .  A
O24          C44   1.277       .  A
O24         Mg40   2.325       .  S
O26         Mg40   2.164       .  S
O26          C37   1.231       .  S
O27         Mg46   2.178       .  S
O28         Mg40   2.317       .  S
Mg29         O45   2.292       .  S
O30         Mg46   2.307       .  S
H31          C36   1.077       .  S
O32         Mg40   2.180       .  S
O32          C35   1.236       .  S
H33          C35   1.081       .  S
H34          C37   1.078       .  S
O39         Mg46   2.312       .  S
C42          O47   1.274       .  A
C42        C1252   1.484       .  S
O43          C44   1.272       .  A
C44        C1288   1.482       .  S
O49         Mg51   2.170       .  S
O49         Mg57   2.186       .  S
O49          C84   1.232       .  S
C50          O63   1.232       .  S
C50          O87   1.267       .  A
C50          H89   1.081       .  S
Mg51         O80   2.186       .  S
Mg51         O95   2.293       .  S
Mg51         O91   2.272       .  S
Mg51         O62   2.290       .  S
O52         Mg94   2.182       .  S
O52         Mg77   2.173       .  S
O52          C73   1.233       .  S
O53          C84   1.266       .  A
O53         Mg77   2.289       .  S
C54          O56   1.276       .  A
C54          O68   1.275       .  A
C54        C1279   1.486       .  S
O55          C83   1.268       .  A
O55         Mg57   2.298       .  S
O56         Mg88   2.273       .  S
Mg57         O63   2.175       .  S
Mg57         O71   2.292       .  S
Mg57         O59   2.324       .  S
C58          O96   1.278       .  A
C58          O64   1.275       .  A
C58        C1088   1.484       .  S
O59          C66   1.276       .  A
H60          C73   1.081       .  S
C61          O75   1.233       .  S
C61          O76   1.268       .  A
C61          H86   1.081       .  S
O62          C85   1.266       .  A
O63         Mg77   2.185       .  S
O64         Mg94   2.315       .  S
C65          O78   1.277       .  A
C65          O70   1.275       .  A
C65         C486   1.485       .  S
C66          O93   1.276       .  A
C66         C306   1.485       .  S
Mg67         O74   2.178       .  S
Mg67         O75   2.186       .  S
Mg67         O68   2.322       .  S
Mg67         O69   2.294       .  S
Mg67         O96   2.287       .  S
O69          C73   1.267       .  A
O70         Mg77   2.317       .  S
O71          C90   1.277       .  A
O72          C92   1.275       .  A
O72         Mg88   2.317       .  S
O74         Mg88   2.172       .  S
O74          C85   1.230       .  S
O75         Mg94   2.176       .  S
O76         Mg88   2.297       .  S
Mg77         O93   2.275       .  S
O78         Mg94   2.289       .  S
H79          C84   1.081       .  S
O80         Mg88   2.171       .  S
O80          C83   1.233       .  S
H81          C83   1.081       .  S
H82          C85   1.075       .  S
O87         Mg94   2.292       .  S
C90          O95   1.272       .  A
C90        C1143   1.479       .  S
O91          C92   1.275       .  A
C92        C1238   1.483       .  S
O97         Mg99   2.184       .  S
O97        Mg105   2.184       .  S
O97         C132   1.233       .  S
C98         O111   1.232       .  S
C98         O135   1.266       .  A
C98         H137   1.081       .  S
Mg99        O128   2.191       .  S
Mg99        O143   2.317       .  S
Mg99        O139   2.284       .  S
Mg99        O110   2.294       .  S
O100       Mg142   2.205       .  S
O100       Mg125   2.168       .  S
O100        C121   1.224       .  S
O101        C132   1.269       .  A
O101       Mg125   2.307       .  S
C102        O104   1.278       .  A
C102        O116   1.275       .  A
C102        C967   1.482       .  S
O103        C131   1.268       .  A
O103       Mg105   2.295       .  S
O104       Mg136   2.281       .  S
Mg105       O111   2.171       .  S
Mg105       O119   2.281       .  S
Mg105       O107   2.308       .  S
C106        O144   1.279       .  A
C106        O112   1.277       .  A
C106        C606   1.485       .  S
O107        C114   1.274       .  A
H108        C121   1.080       .  S
C109        O123   1.231       .  S
C109        O124   1.266       .  A
C109        H134   1.076       .  S
O110        C133   1.268       .  A
O111       Mg125   2.190       .  S
O112       Mg142   2.318       .  S
C113        O126   1.277       .  A
C113        O118   1.277       .  A
C113        C883   1.486       .  S
C114        O141   1.277       .  A
C114       C1003   1.481       .  S
Mg115       O122   2.168       .  S
Mg115       O123   2.199       .  S
Mg115       O116   2.305       .  S
Mg115       O117   2.218       .  S
Mg115       O144   2.292       .  S
O117        C121   1.257       .  A
O118       Mg125   2.317       .  S
O119        C138   1.276       .  A
O120        C140   1.274       .  A
O120       Mg136   2.307       .  S
O122       Mg136   2.177       .  S
O122        C133   1.234       .  S
O123       Mg142   2.231       .  S
O124       Mg136   2.292       .  S
Mg125       O141   2.288       .  S
O126       Mg142   2.279       .  S
H127        C132   1.082       .  S
O128       Mg136   2.179       .  S
O128        C131   1.233       .  S
H129        C131   1.081       .  S
H130        C133   1.081       .  S
O135       Mg142   2.292       .  S
C138        O143   1.275       .  A
C138        C717   1.487       .  S
O139        C140   1.277       .  A
C140        C511   1.482       .  S
C145        C322   1.478       .  S
C145        C146   1.394       .  A
C145        C150   1.420       .  A
C146        H151   1.085       .  S
C146        C147   1.396       .  A
C147       C1909   1.458       .  S
C147        C148   1.395       .  A
C148        H152   1.085       .  S
C148        C149   1.390       .  A
C149        C834   1.477       .  S
C149        C150   1.419       .  A
C150        H153   1.083       .  S
C154        C812   1.480       .  S
C154        C155   1.395       .  A
C154        C159   1.421       .  A
C155        H160   1.085       .  S
C155        C156   1.397       .  A
C156       C1897   1.460       .  S
C156        C157   1.396       .  A
C157        H161   1.085       .  S
C157        C158   1.391       .  A
C158        C238   1.480       .  S
C158        C159   1.419       .  A
C159        H162   1.083       .  S
C163       C1912   1.469       .  S
C163        C164   1.397       .  A
C163        C168   1.396       .  A
C164        H169   1.083       .  S
C164        C165   1.397       .  A
C165       C1900   1.471       .  S
C165        C166   1.397       .  A
C166        H170   1.084       .  S
C166        C167   1.399       .  A
C167       C1885   1.471       .  S
C167        C168   1.396       .  A
C168        H171   1.083       .  S
C172        C190   1.475       .  S
C172        C173   1.417       .  A
C172        C177   1.391       .  A
C173        H178   1.083       .  S
C173        C174   1.418       .  A
C174        C944   1.477       .  S
C174        C175   1.393       .  A
C175        H179   1.085       .  S
C175        C176   1.398       .  A
C176       C1888   1.462       .  S
C176        C177   1.396       .  A
C177        H180   1.085       .  S
O181       Mg183   2.198       .  S
O181       Mg189   2.163       .  S
O181        C216   1.233       .  S
C182        O195   1.234       .  S
C182        O219   1.270       .  A
C182        H221   1.079       .  S
Mg183       O212   2.161       .  S
Mg183       O227   2.310       .  S
Mg183       O223   2.299       .  S
Mg183       O194   2.308   1_655  S
O184       Mg226   2.169       .  S
O184       Mg209   2.191       .  S
O184        C205   1.235       .  S
O185        C216   1.269       .  A
O185       Mg209   2.308   1_655  S
C186        O188   1.272       .  A
C186        O200   1.275       .  A
C186       C1048   1.477       .  S
O187        C215   1.266       .  A
O187       Mg189   2.305       .  S
O188       Mg220   2.295       .  S
Mg189       O195   2.182       .  S
Mg189       O203   2.293       .  S
Mg189       O191   2.297       .  S
C190        O228   1.270       .  A
C190        O196   1.273       .  A
O191        C198   1.274       .  A
H192        C205   1.081       .  S
C193        O207   1.235       .  S
C193        O208   1.271       .  A
C193        H218   1.081       .  S
O194        C217   1.266       .  A
O195       Mg209   2.164   1_655  S
O196       Mg226   2.297       .  S
C197        O210   1.271       .  A
C197        O202   1.273       .  A
C197       C1243   1.475       .  S
C198        O225   1.274       .  A
C198        C726   1.481       .  S
Mg199       O206   2.158       .  S
Mg199       O207   2.162       .  S
Mg199       O200   2.300       .  S
Mg199       O201   2.322       .  S
Mg199       O228   2.288       .  S
O201        C205   1.272       .  A
O202       Mg209   2.293       .  S
O203        C222   1.272       .  A
O204        C224   1.273       .  A
O204       Mg220   2.298   1_655  S
O206       Mg220   2.156       .  S
O206        C217   1.230       .  S
O207       Mg226   2.184       .  S
O208       Mg220   2.315       .  S
Mg209       O225   2.313   1_455  S
O210       Mg226   2.295       .  S
H211        C216   1.077       .  S
O212       Mg220   2.177   1_655  S
O212        C215   1.230       .  S
H213        C215   1.081       .  S
H214        C217   1.081       .  S
O219       Mg226   2.313   1_655  S
C222        O227   1.275       .  A
C222        C304   1.478       .  S
O223        C224   1.274       .  A
C224        C885   1.477       .  S
O229       Mg231   2.174       .  S
O229       Mg237   2.173       .  S
O229        C264   1.234       .  S
C230        O243   1.235       .  S
C230        O267   1.271       .  A
C230        H269   1.081       .  S
Mg231       O260   2.166       .  S
Mg231       O275   2.302       .  S
Mg231       O271   2.302       .  S
Mg231       O242   2.310   1_565  S
O232       Mg274   2.145       .  S
O232       Mg257   2.157       .  S
O232        C253   1.230       .  S
O233        C264   1.269       .  A
O233       Mg257   2.304   1_565  S
C234        O236   1.273       .  A
C234        O248   1.274       .  A
C234       C1084   1.476       .  S
O235        C263   1.271       .  A
O235       Mg237   2.314       .  S
O236       Mg268   2.300   1_545  S
Mg237       O243   2.176       .  S
Mg237       O251   2.302       .  S
Mg237       O239   2.301       .  S
C238        O276   1.274       .  A
C238        O244   1.273       .  A
O239        C246   1.274       .  A
H240        C253   1.076       .  S
C241        O255   1.232       .  S
C241        O256   1.272       .  A
C241        H266   1.077       .  S
O242        C265   1.270       .  A
O243       Mg257   2.169   1_565  S
O244       Mg274   2.293       .  S
C245        O258   1.273       .  A
C245        O250   1.272       .  A
C245       C1043   1.479       .  S
C246        O273   1.269       .  A
C246        C980   1.469       .  S
Mg247       O254   2.187       .  S
Mg247       O255   2.162       .  S
Mg247       O248   2.293       .  S
Mg247       O249   2.308       .  S
Mg247       O276   2.313       .  S
O249        C253   1.270       .  A
O250       Mg257   2.286       .  S
O251        C270   1.273       .  A
O252        C272   1.275       .  A
O252       Mg268   2.313       .  S
O254       Mg268   2.166   1_545  S
O254        C265   1.233       .  S
O255       Mg274   2.179       .  S
O256       Mg268   2.317   1_545  S
Mg257       O273   2.269   1_545  S
O258       Mg274   2.311       .  S
H259        C264   1.081       .  S
O260       Mg268   2.184       .  S
O260        C263   1.234       .  S
H261        C263   1.081       .  S
H262        C265   1.081       .  S
O267       Mg274   2.314   1_565  S
C270        O275   1.275       .  A
C270        C295   1.478       .  S
O271        C272   1.273       .  A
C272        C715   1.482       .  S
C277       C1873   1.468       .  S
C277        C278   1.398       .  A
C277        C282   1.400       .  A
C278        H283   1.084       .  S
C278        C279   1.392       .  A
C279       C1849   1.450       .  S
C279        C280   1.389       .  A
C280        H284   1.084       .  S
C280        C281   1.392       .  A
C281       C1861   1.463       .  S
C281        C282   1.398       .  A
C282        H285   1.084       .  S
C286       C1313   1.480       .  S
C286        C287   1.393       .  A
C286        C291   1.421       .  A
C287        H292   1.085       .  S
C287        C288   1.396       .  A
C288       C1876   1.461       .  S
C288        C289   1.397       .  A
C289        H293   1.085       .  S
C289        C290   1.392       .  A
C290        C354   1.481       .  S
C290        C291   1.420       .  A
C291        H294   1.083       .  S
C295        C296   1.420       .  A
C295        C300   1.391       .  A
C296        H301   1.083       .  S
C296        C297   1.420       .  A
C297        C298   1.391       .  A
C298        H302   1.084       .  S
C298        C299   1.402       .  A
C299       C1864   1.472       .  S
C299        C300   1.398       .  A
C300        H303   1.084       .  S
C304        C305   1.423       .  A
C304        C309   1.391       .  A
C305        H310   1.083       .  S
C305        C306   1.422       .  A
C306        C307   1.393       .  A
C307        H311   1.085       .  S
C307        C308   1.392       .  A
C308       C1852   1.455       .  S
C308        C309   1.393       .  A
C309        H312   1.085       .  S
O313       Mg315   2.166       .  S
O313       Mg321   2.156       .  S
O313        C348   1.231       .  S
C314        O327   1.235       .  S
C314        O351   1.271       .  A
C314        H353   1.081       .  S
Mg315       O344   2.174       .  S
Mg315       O359   2.297       .  S
Mg315       O355   2.277       .  S
Mg315       O326   2.305   1_556  S
O316       Mg358   2.167       .  S
O316       Mg341   2.178       .  S
O316        C337   1.231       .  S
O317        C348   1.269       .  A
O317       Mg341   2.305   1_556  S
C318        O320   1.276       .  A
C318        O332   1.275       .  A
C318       C1254   1.483       .  S
O319        C347   1.272       .  A
O319       Mg321   2.317       .  S
O320       Mg352   2.317   1_554  S
Mg321       O327   2.183       .  S
Mg321       O335   2.312       .  S
Mg321       O323   2.308       .  S
C322        O360   1.274       .  A
C322        O328   1.275       .  A
O323        C330   1.275       .  A
H324        C337   1.081       .  S
C325        O339   1.234       .  S
C325        O340   1.270       .  A
C325        H350   1.081       .  S
O326        C349   1.269       .  A
O327       Mg341   2.177   1_556  S
O328       Mg358   2.307       .  S
C329        O342   1.274       .  A
C329        O334   1.274       .  A
C329       C1075   1.478       .  S
C330        O357   1.274       .  A
C330        C894   1.479       .  S
Mg331       O338   2.179       .  S
Mg331       O339   2.175       .  S
Mg331       O332   2.308       .  S
Mg331       O333   2.304       .  S
Mg331       O360   2.299       .  S
O333        C337   1.268       .  A
O334       Mg341   2.298       .  S
O335        C354   1.274       .  A
O336        C356   1.275       .  A
O336       Mg352   2.308       .  S
O338       Mg352   2.176   1_554  S
O338        C349   1.234       .  S
O339       Mg358   2.186       .  S
O340       Mg352   2.309   1_554  S
Mg341       O357   2.304   1_554  S
O342       Mg358   2.304       .  S
H343        C348   1.078       .  S
O344       Mg352   2.188       .  S
O344        C347   1.236       .  S
H345        C347   1.081       .  S
H346        C349   1.080       .  S
O351       Mg358   2.312   1_556  S
C354        O359   1.273       .  A
O355        C356   1.271       .  A
C356        C969   1.473       .  S
O361       Mg363   2.181       .  S
O361       Mg369   2.166       .  S
O361        C396   1.233       .  S
C362        O375   1.233       .  S
C362        O399   1.270       .  A
C362        H401   1.081       .  S
Mg363       O392   2.147       .  S
Mg363       O407   2.296       .  S
Mg363       O403   2.306       .  S
Mg363       O374   2.316       .  S
O364       Mg406   2.170       .  S
O364       Mg389   2.185       .  S
O364        C385   1.234       .  S
O365        C396   1.270       .  A
O365       Mg389   2.306       .  S
C366        O368   1.272       .  A
C366        O380   1.273       .  A
C366        C522   1.475       .  S
O367        C395   1.271       .  A
O367       Mg369   2.313       .  S
O368       Mg400   2.289       .  S
Mg369       O375   2.185       .  S
Mg369       O383   2.316       .  S
Mg369       O371   2.304       .  S
C370        O408   1.272       .  A
C370        O376   1.275       .  A
C370       C1172   1.476       .  S
O371        C378   1.275       .  A
H372        C385   1.081       .  S
C373        O387   1.234       .  S
C373        O388   1.270       .  A
C373        H398   1.081       .  S
O374        C397   1.272       .  A
O375       Mg389   2.171       .  S
O376       Mg406   2.307       .  S
C377        O390   1.273       .  A
C377        O382   1.274       .  A
C377        C595   1.478       .  S
C378        O405   1.274       .  A
C378        C484   1.480       .  S
Mg379       O386   2.173       .  S
Mg379       O387   2.171       .  S
Mg379       O380   2.303       .  S
Mg379       O381   2.310       .  S
Mg379       O408   2.288       .  S
O381        C385   1.270       .  A
O382       Mg389   2.304       .  S
O383        C402   1.274       .  A
O384        C404   1.273       .  A
O384       Mg400   2.297       .  S
O386       Mg400   2.161       .  S
O386        C397   1.236       .  S
O387       Mg406   2.175       .  S
O388       Mg400   2.308       .  S
Mg389       O405   2.306       .  S
O390       Mg406   2.298       .  S
H391        C396   1.081       .  S
O392       Mg400   2.168       .  S
O392        C395   1.231       .  S
H393        C395   1.077       .  S
H394        C397   1.081       .  S
O399       Mg406   2.309       .  S
C402        O407   1.274       .  A
C402       C1012   1.481       .  S
O403        C404   1.272       .  A
C404        C622   1.480       .  S
O409       Mg411   2.180       .  S
O409       Mg417   2.183   1_554  S
O409        C444   1.232       .  S
C410        O423   1.233       .  S
C410        O447   1.268   1_455  A
C410        H449   1.081       .  S
Mg411       O440   2.187   1_455  S
Mg411       O455   2.307       .  S
Mg411       O451   2.285       .  S
Mg411       O422   2.292   1_565  S
O412       Mg454   2.187   1_455  S
O412       Mg437   2.174       .  S
O412        C433   1.232       .  S
O413        C444   1.267   1_545  A
O413       Mg437   2.294   1_554  S
C414        O416   1.277   1_545  A
C414        O428   1.274       .  A
C414        C949   1.481       .  S
O415        C443   1.268   1_556  A
O415       Mg417   2.297   1_655  S
O416       Mg448   2.287       .  S
Mg417       O423   2.179       .  S
Mg417       O431   2.291   1_556  S
Mg417       O419   2.333       .  S
C418        O456   1.276   1_556  A
C418        O424   1.273       .  A
C418       C1234   1.481       .  S
O419        C426   1.277       .  A
H420        C433   1.081       .  S
C421        O435   1.233       .  S
C421        O436   1.268   1_546  A
C421        H446   1.081       .  S
O422        C445   1.267   1_455  A
O423       Mg437   2.187   1_565  S
O424       Mg454   2.303       .  S
C425        O438   1.275   1_455  A
C425        O430   1.276       .  A
C425        C706   1.486       .  S
C426        O453   1.278   1_565  A
C426       C1057   1.489       .  S
Mg427       O434   2.165       .  S
Mg427       O435   2.186   1_554  S
Mg427       O428   2.310       .  S
Mg427       O429   2.293       .  S
Mg427       O456   2.280       .  S
O429        C433   1.267   1_654  A
O430       Mg437   2.317       .  S
O431        C450   1.278       .  A
O432        C452   1.275       .  A
O432       Mg448   2.314       .  S
O434       Mg448   2.182   1_545  S
O434        C445   1.233       .  S
O435       Mg454   2.174       .  S
O436       Mg448   2.297       .  S
Mg437       O453   2.290       .  S
O438       Mg454   2.278       .  S
H439        C444   1.079       .  S
O440       Mg448   2.173       .  S
O440        C443   1.234       .  S
H441        C443   1.081       .  S
H442        C445   1.081       .  S
O447       Mg454   2.298   1_565  S
C450        O455   1.274       .  A
C450        C867   1.484       .  S
O451        C452   1.276   1_455  A
C452       C1023   1.484       .  S
C457       C1102   1.479       .  S
C457        C458   1.391       .  A
C457        C462   1.419       .  A
C458        H463   1.085   1_565  S
C458        C459   1.395       .  A
C459       C1837   1.458   1_565  S
C459        C460   1.397       .  A
C460        H464   1.085       .  S
C460        C461   1.396       .  A
C461        C462   1.420       .  A
C462        H465   1.083       .  S
C466       C1816   1.465       .  S
C466        C467   1.398       .  A
C466        C471   1.393       .  A
C467        H472   1.084       .  S
C467        C468   1.396       .  A
C468       C1840   1.462       .  S
C468        C469   1.394       .  A
C469        H473   1.084       .  S
C469        C470   1.398       .  A
C470       C1825   1.465       .  S
C470        C471   1.394       .  A
C471        H474   1.081       .  S
C475        C534   1.479       .  S
C475        C476   1.390       .  A
C475        C480   1.420       .  A
C476        H481   1.084       .  S
C476        C477   1.394       .  A
C477       C1828   1.473       .  S
C477        C478   1.400       .  A
C478        H482   1.084       .  S
C478        C479   1.395       .  A
C479       C1193   1.486       .  S
C479        C480   1.421       .  A
C480        H483   1.083       .  S
C484        C485   1.421       .  A
C484        C489   1.390       .  A
C485        H490   1.083       .  S
C485        C486   1.422       .  A
C486        C487   1.393       .  A
C487        H491   1.083       .  S
C487        C488   1.398       .  A
C488       C1813   1.473       .  S
C488        C489   1.400       .  A
C489        H492   1.084       .  S
C493        C810   1.476       .  S
C493        C494   1.389       .  A
C493        C498   1.417       .  A
C494        H499   1.084       .  S
C494        C495   1.400       .  A
C495       C1801   1.473   1_545  S
C495        C496   1.401       .  A
C496        H500   1.083   1_545  S
C496        C497   1.393       .  A
C497       C1134   1.478       .  S
C497        C498   1.417       .  A
C498        H501   1.083       .  S
C502       C1789   1.470       .  S
C502        C503   1.397       .  A
C502        C507   1.398       .  A
C503        H508   1.084       .  S
C503        C504   1.395       .  A
C504       C1804   1.461       .  S
C504        C505   1.393       .  A
C505        H509   1.084       .  S
C505        C506   1.396       .  A
C506       C1780   1.465       .  S
C506        C507   1.396       .  A
C507        H510   1.083       .  S
C511        C512   1.394       .  A
C511        C516   1.422       .  A
C512        H517   1.085       .  S
C512        C513   1.392       .  A
C513       C1777   1.456       .  S
C513        C514   1.392       .  A
C514        H518   1.085       .  S
C514        C515   1.393       .  A
C515        C546   1.481       .  S
C515        C516   1.421       .  A
C516        H519   1.083       .  S
C520        C906   1.475       .  S
C520        C521   1.416       .  A
C520        C525   1.390       .  A
C521        H526   1.083       .  S
C521        C522   1.418       .  A
C522        C523   1.394       .  A
C523        H527   1.085       .  S
C523        C524   1.397       .  A
C524       C1792   1.460       .  S
C524        C525   1.396       .  A
C525        H528   1.085       .  S
O529       Mg531   2.167       .  S
O529       Mg537   2.185   1_545  S
O529        C564   1.232       .  S
C530        O543   1.233       .  S
C530        O567   1.268   1_556  A
C530        H569   1.080       .  S
Mg531       O560   2.185   1_556  S
Mg531       O575   2.326       .  S
Mg531       O571   2.281       .  S
Mg531       O542   2.300       .  S
O532       Mg574   2.180   1_556  S
O532       Mg557   2.166       .  S
O532        C553   1.233       .  S
O533        C564   1.267       .  A
O533       Mg557   2.289   1_545  S
C534        O536   1.277       .  A
C534        O548   1.272       .  A
O535        C563   1.267   1_565  A
O535       Mg537   2.298   1_554  S
O536       Mg568   2.285       .  S
Mg537       O543   2.175       .  S
Mg537       O551   2.281       .  S
Mg537       O539   2.314       .  S
C538        O576   1.276       .  A
C538        O544   1.276       .  A
C538        C760   1.484       .  S
O539        C546   1.274       .  A
H540        C553   1.081       .  S
C541        O555   1.233       .  S
C541        O556   1.267       .  A
C541        H566   1.081       .  S
O542        C565   1.268   1_556  A
O543       Mg557   2.181       .  S
O544       Mg574   2.325       .  S
C545        O558   1.276       .  A
C545        O550   1.274       .  A
C545        C615   1.478       .  S
C546        O573   1.275       .  A
Mg547       O554   2.176       .  S
Mg547       O555   2.184   1_545  S
Mg547       O548   2.301       .  S
Mg547       O549   2.290   1_554  S
Mg547       O576   2.276   1_545  S
O549        C553   1.266   1_545  A
O550       Mg557   2.309       .  S
O551        C570   1.276   1_565  A
O552        C572   1.275       .  A
O552       Mg568   2.312       .  S
O554       Mg568   2.184       .  S
O554        C565   1.233       .  S
O555       Mg574   2.160       .  S
O556       Mg568   2.291   1_565  S
Mg557       O573   2.272       .  S
O558       Mg574   2.265   1_556  S
H559        C564   1.081       .  S
O560       Mg568   2.177       .  S
O560        C563   1.233       .  S
H561        C563   1.081       .  S
H562        C565   1.081       .  S
O567       Mg574   2.297       .  S
C570        O575   1.277       .  A
C570       C1281   1.485       .  S
O571        C572   1.276   1_556  A
C572        C579   1.481       .  S
C577        C833   1.475       .  S
C577        C578   1.418       .  A
C577        C582   1.393       .  A
C578        H583   1.083       .  S
C578        C579   1.418       .  A
C579        C580   1.393       .  A
C580        H584   1.085   1_554  S
C580        C581   1.398       .  A
C581       C1765   1.466   1_554  S
C581        C582   1.396       .  A
C582        H585   1.084       .  S
C586       C1753   1.477       .  S
C586        C587   1.399       .  A
C586        C591   1.404       .  A
C587        H592   1.083       .  S
C587        C588   1.395       .  A
C588       C1768   1.456       .  S
C588        C589   1.390       .  A
C589        H593   1.085       .  S
C589        C590   1.395       .  A
C590       C1741   1.468       .  S
C590        C591   1.398       .  A
C591        H594   1.083       .  S
C595        C596   1.393       .  A
C595        C600   1.421       .  A
C596        H601   1.084       .  S
C596        C597   1.396       .  A
C597       C1756   1.464       .  S
C597        C598   1.398       .  A
C598        H602   1.085       .  S
C598        C599   1.390       .  A
C599        C774   1.481       .  S
C599        C600   1.420       .  A
C600        H603   1.083       .  S
C604        C658   1.488       .  S
C604        C605   1.424       .  A
C604        C609   1.397       .  A
C605        H610   1.083       .  S
C605        C606   1.423       .  A
C606        C607   1.393       .  A
C607        H611   1.085       .  S
C607        C608   1.391       .  A
C608       C1744   1.457       .  S
C608        C609   1.394       .  A
C609        H612   1.085       .  S
C613       C1306   1.476       .  S
C613        C614   1.418       .  A
C613        C618   1.394       .  A
C614        H619   1.083       .  S
C614        C615   1.416       .  A
C615        C616   1.390       .  A
C616        H620   1.084   1_556  S
C616        C617   1.395       .  A
C617       C1729   1.470   1_556  S
C617        C618   1.401       .  A
C618        H621   1.084       .  S
C622        C623   1.419       .  A
C622        C627   1.394       .  A
C623        H628   1.083       .  S
C623        C624   1.419       .  A
C624        C625   1.392       .  A
C625        H629   1.085       .  S
C625        C626   1.393       .  A
C626       C1717   1.453       .  S
C626        C627   1.395       .  A
C627        H630   1.085       .  S
C631       C1732   1.463       .  S
C631        C632   1.398       .  A
C631        C636   1.392       .  A
C632        H637   1.084       .  S
C632        C633   1.394       .  A
C633       C1720   1.457       .  S
C633        C634   1.395       .  A
C634        H638   1.084       .  S
C634        C635   1.396       .  A
C635       C1708   1.464       .  S
C635        C636   1.395       .  A
C636        H639   1.084       .  S
C640       C1218   1.481       .  S
C640        C641   1.391       .  A
C640        C645   1.421       .  A
C641        H646   1.085       .  S
C641        C642   1.389       .  A
C642       C1705   1.453       .  S
C642        C643   1.393       .  A
C643        H647   1.085       .  S
C643        C644   1.395       .  A
C644        C690   1.484       .  S
C644        C645   1.423       .  A
C645        H648   1.083       .  S
O649       Mg651   2.171       .  S
O649       Mg657   2.189       .  S
O649        C684   1.233       .  S
C650        O663   1.234       .  S
C650        O687   1.269   1_554  A
C650        H689   1.082       .  S
Mg651       O680   2.179   1_554  S
Mg651       O695   2.308       .  S
Mg651       O691   2.290       .  S
Mg651       O662   2.296   1_455  S
O652       Mg694   2.176   1_554  S
O652       Mg677   2.171       .  S
O652        C673   1.230       .  S
O653        C684   1.266   1_655  A
O653       Mg677   2.292       .  S
C654        O656   1.274   1_655  A
C654        O668   1.276       .  A
C654       C1141   1.482       .  S
O655        C683   1.266       .  A
O655       Mg657   2.292   1_556  S
O656       Mg688   2.255       .  S
Mg657       O663   2.179       .  S
Mg657       O671   2.291       .  S
Mg657       O659   2.320       .  S
C658        O696   1.278       .  A
C658        O664   1.277       .  A
O659        C666   1.276       .  A
H660        C673   1.079       .  S
C661        O675   1.233       .  S
C661        O676   1.268   1_655  A
C661        H686   1.081       .  S
O662        C685   1.268   1_554  A
O663       Mg677   2.185   1_455  S
O664       Mg694   2.327       .  S
C665        O678   1.277   1_554  A
C665        O670   1.272       .  A
C665       C1292   1.483       .  S
C666        O693   1.274   1_455  A
C666        C996   1.485       .  S
Mg667       O674   2.182       .  S
Mg667       O675   2.190       .  S
Mg667       O668   2.324       .  S
Mg667       O669   2.299   1_556  S
Mg667       O696   2.292       .  S
O669        C673   1.267       .  A
O670       Mg677   2.298       .  S
O671        C690   1.278       .  A
O672        C692   1.274       .  A
O672       Mg688   2.316       .  S
O674       Mg688   2.186   1_655  S
O674        C685   1.233       .  S
O675       Mg694   2.171       .  S
O676       Mg688   2.295       .  S
Mg677       O693   2.265       .  S
O678       Mg694   2.288       .  S
H679        C684   1.081       .  S
O680       Mg688   2.162       .  S
O680        C683   1.232       .  S
H681        C683   1.081       .  S
H682        C685   1.081       .  S
O687       Mg694   2.302   1_455  S
C690        O695   1.275       .  A
O691        C692   1.277   1_554  A
C692        C744   1.487       .  S
C697       C1681   1.491       .  S
C697        C698   1.404       .  A
C697        C702   1.402       .  A
C698        H703   1.082       .  S
C698        C699   1.399       .  A
C699       C1693   1.469       .  S
C699        C700   1.394       .  A
C700        H704   1.081       .  S
C700        C701   1.394       .  A
C701       C1672   1.469       .  S
C701        C702   1.399       .  A
C702        H705   1.081       .  S
C706        C707   1.395       .  A
C706        C711   1.414       .  A
C707        H712   1.079   1_455  S
C707        C708   1.405       .  A
C708       C1684   1.498   1_455  S
C708        C709   1.409       .  A
C709        H713   1.081       .  S
C709        C710   1.395       .  A
C710        C786   1.480       .  S
C710        C711   1.413       .  A
C711        H714   1.083       .  S
C715        C716   1.422       .  A
C715        C720   1.394       .  A
C716        H721   1.083       .  S
C716        C717   1.421       .  A
C717        C718   1.394       .  A
C718        H722   1.085       .  S
C718        C719   1.395       .  A
C719       C1696   1.467   1_565  S
C719        C720   1.398       .  A
C720        H723   1.085   1_565  S
C724        C860   1.480       .  S
C724        C725   1.422       .  A
C724        C729   1.393       .  A
C725        H730   1.083       .  S
C725        C726   1.420       .  A
C726        C727   1.392       .  A
C727        H731   1.085       .  S
C727        C728   1.396       .  A
C728       C1669   1.464       .  S
C728        C729   1.397       .  A
C729        H732   1.085       .  S
C733       C1109   1.471       .  S
C733        C734   1.391       .  A
C733        C738   1.414       .  A
C734        H739   1.085   1_655  S
C734        C735   1.395       .  A
C735       C1657   1.457   1_655  S
C735        C736   1.396       .  A
C736        H740   1.085       .  S
C736        C737   1.392       .  A
C737        C822   1.471       .  S
C737        C738   1.415       .  A
C738        H741   1.083       .  S
C742        C785   1.481       .  S
C742        C743   1.423       .  A
C742        C747   1.392       .  A
C743        H748   1.083       .  S
C743        C744   1.423       .  A
C744        C745   1.394       .  A
C745        H749   1.085   1_556  S
C745        C746   1.394       .  A
C746       C1645   1.457   1_556  S
C746        C747   1.394       .  A
C747        H750   1.085       .  S
C751       C1660   1.450       .  S
C751        C752   1.392       .  A
C751        C756   1.391       .  A
C752        H757   1.084       .  S
C752        C753   1.397       .  A
C753       C1648   1.466       .  S
C753        C754   1.398       .  A
C754        H758   1.084       .  S
C754        C755   1.396       .  A
C755       C1636   1.460       .  S
C755        C756   1.394       .  A
C756        H759   1.084       .  S
C760        C761   1.394       .  A
C760        C765   1.420       .  A
C761        H766   1.084   1_565  S
C761        C762   1.398       .  A
C762       C1633   1.471   1_565  S
C762        C763   1.398       .  A
C763        H767   1.085       .  S
C763        C764   1.392       .  A
C764        C917   1.478       .  S
C764        C765   1.420       .  A
C765        H768   1.083       .  S
O769       Mg771   2.181       .  S
O769       Mg777   2.162       .  S
O769        C804   1.231       .  S
C770        O783   1.234       .  S
C770        O807   1.270       .  A
C770        H809   1.081       .  S
Mg771       O800   2.172       .  S
Mg771       O815   2.295       .  S
Mg771       O811   2.304       .  S
Mg771       O782   2.307       .  S
O772       Mg814   2.159       .  S
O772       Mg797   2.171       .  S
O772        C793   1.232       .  S
O773        C804   1.271       .  A
O773       Mg797   2.314       .  S
C774        O776   1.273       .  A
C774        O788   1.274       .  A
O775        C803   1.272       .  A
O775       Mg777   2.312       .  S
O776       Mg808   2.308       .  S
Mg777       O783   2.178       .  S
Mg777       O791   2.291       .  S
Mg777       O779   2.304       .  S
C778        O816   1.272       .  A
C778        O784   1.274       .  A
C778        C892   1.477       .  S
O779        C786   1.274       .  A
H780        C793   1.081       .  S
C781        O795   1.232       .  S
C781        O796   1.272       .  A
C781        H806   1.078       .  S
O782        C805   1.269       .  A
O783       Mg797   2.166       .  S
O784       Mg814   2.298       .  S
C785        O798   1.273       .  A
C785        O790   1.276       .  A
C786        O813   1.274       .  A
Mg787       O794   2.182       .  S
Mg787       O795   2.157       .  S
Mg787       O788   2.302       .  S
Mg787       O789   2.312       .  S
Mg787       O816   2.297       .  S
O789        C793   1.269       .  A
O790       Mg797   2.313       .  S
O791        C810   1.271       .  A
O792        C812   1.275       .  A
O792       Mg808   2.309       .  S
O794       Mg808   2.166       .  S
O794        C805   1.232       .  S
O795       Mg814   2.187       .  S
O796       Mg808   2.318       .  S
Mg797       O813   2.303       .  S
O798       Mg814   2.302       .  S
H799        C804   1.077       .  S
O800       Mg808   2.180       .  S
O800        C803   1.235       .  S
H801        C803   1.081       .  S
H802        C805   1.079       .  S
O807       Mg814   2.309       .  S
C810        O815   1.273       .  A
O811        C812   1.274       .  A
O817       Mg819   2.175       .  S
O817       Mg825   2.165       .  S
O817        C852   1.231       .  S
C818        O831   1.234       .  S
C818        O855   1.270       .  A
C818        H857   1.080       .  S
Mg819       O848   2.164       .  S
Mg819       O863   2.302       .  S
Mg819       O859   2.300       .  S
Mg819       O830   2.308       .  S
O820       Mg862   2.161       .  S
O820       Mg845   2.174       .  S
O820        C841   1.236       .  S
O821        C852   1.271       .  A
O821       Mg845   2.311       .  S
C822        O824   1.271       .  A
C822        O836   1.273       .  A
O823        C851   1.268       .  A
O823       Mg825   2.299       .  S
O824       Mg856   2.285       .  S
Mg825       O831   2.184       .  S
Mg825       O839   2.294       .  S
Mg825       O827   2.294       .  S
C826        O864   1.273       .  A
C826        O832   1.274       .  A
C826        C951   1.481       .  S
O827        C834   1.273       .  A
H828        C841   1.081       .  S
C829        O843   1.233       .  S
C829        O844   1.271       .  A
C829        H854   1.081       .  S
O830        C853   1.269       .  A
O831       Mg845   2.161       .  S
O832       Mg862   2.299       .  S
C833        O846   1.272       .  A
C833        O838   1.274       .  A
C834        O861   1.271       .  A
Mg835       O842   2.187       .  S
Mg835       O843   2.155       .  S
Mg835       O836   2.294       .  S
Mg835       O837   2.316       .  S
Mg835       O864   2.309       .  S
O837        C841   1.272       .  A
O838       Mg845   2.298       .  S
O839        C858   1.273       .  A
O840        C860   1.275       .  A
O840       Mg856   2.311       .  S
O842       Mg856   2.169       .  S
O842        C853   1.233       .  S
O843       Mg862   2.174       .  S
O844       Mg856   2.308       .  S
Mg845       O861   2.299       .  S
O846       Mg862   2.298       .  S
H847        C852   1.076       .  S
O848       Mg856   2.162       .  S
O848        C851   1.232       .  S
H849        C851   1.081       .  S
H850        C853   1.081       .  S
O855       Mg862   2.314       .  S
C858        O863   1.274       .  A
C858       C1014   1.477       .  S
O859        C860   1.274       .  A
C865        C918   1.477       .  S
C865        C866   1.420       .  A
C865        C870   1.390       .  A
C866        H871   1.083       .  S
C866        C867   1.420       .  A
C867        C868   1.391       .  A
C868        H872   1.084   1_554  S
C868        C869   1.398       .  A
C869       C1621   1.470   1_554  S
C869        C870   1.397       .  A
C870        H873   1.084       .  S
C874       C1597   1.464       .  S
C874        C875   1.391       .  A
C874        C879   1.396       .  A
C875        H880   1.084       .  S
C875        C876   1.393       .  A
C876       C1624   1.468       .  S
C876        C877   1.394       .  A
C877        H881   1.071       .  S
C877        C878   1.403       .  A
C878       C1609   1.491       .  S
C878        C879   1.405       .  A
C879        H882   1.081       .  S
C883        C884   1.414       .  A
C883        C888   1.394       .  A
C884        H889   1.083       .  S
C884        C885   1.414       .  A
C885        C886   1.393       .  A
C886        H890   1.079   1_655  S
C886        C887   1.405       .  A
C887       C1612   1.495   1_655  S
C887        C888   1.407       .  A
C888        H891   1.079       .  S
C892        C893   1.418       .  A
C892        C897   1.391       .  A
C893        H898   1.083       .  S
C893        C894   1.419       .  A
C894        C895   1.394       .  A
C895        H899   1.085       .  S
C895        C896   1.399       .  A
C896       C1600   1.465       .  S
C896        C897   1.397       .  A
C897        H900   1.085       .  S
O901       Mg903   2.179       .  S
O901       Mg909   2.165       .  S
O901        C936   1.234       .  S
C902        O915   1.235       .  S
C902        O939   1.271       .  A
C902        H941   1.081       .  S
Mg903       O932   2.164       .  S
Mg903       O947   2.303       .  S
Mg903       O943   2.297       .  S
Mg903       O914   2.308       .  S
O904       Mg946   2.160       .  S
O904       Mg929   2.175       .  S
O904        C925   1.235       .  S
O905        C936   1.270       .  A
O905       Mg929   2.308       .  S
C906        O908   1.271       .  A
C906        O920   1.274       .  A
O907        C935   1.270       .  A
O907       Mg909   2.312       .  S
O908       Mg940   2.293       .  S
Mg909       O915   2.181       .  S
Mg909       O923   2.304       .  S
Mg909       O911   2.307       .  S
C910        O948   1.271       .  A
C910        O916   1.273       .  A
C910        C976   1.476       .  S
O911        C918   1.275       .  A
H912        C925   1.081       .  S
C913        O927   1.235       .  S
C913        O928   1.271       .  A
C913        H938   1.080       .  S
O914        C937   1.270       .  A
O915       Mg929   2.173       .  S
O916       Mg946   2.294       .  S
C917        O930   1.272       .  A
C917        O922   1.273       .  A
C918        O945   1.272       .  A
Mg919       O926   2.175       .  S
Mg919       O927   2.158       .  S
Mg919       O920   2.296       .  S
Mg919       O921   2.316       .  S
Mg919       O948   2.298       .  S
O921        C925   1.271       .  A
O922       Mg929   2.295       .  S
O923        C942   1.275       .  A
O924        C944   1.273       .  A
O924       Mg940   2.298       .  S
O926       Mg940   2.163       .  S
O926        C937   1.234       .  S
O927       Mg946   2.180       .  S
O928       Mg940   2.315       .  S
Mg929       O945   2.293       .  S
O930       Mg946   2.302       .  S
H931        C936   1.081       .  S
O932       Mg940   2.177       .  S
O932        C935   1.234       .  S
H933        C935   1.081       .  S
H934        C937   1.081       .  S
O939       Mg946   2.313       .  S
C942        O947   1.274       .  A
C942        C994   1.480       .  S
O943        C944   1.272       .  A
C949        C950   1.419       .  A
C949        C954   1.392       .  A
C950        H955   1.083       .  S
C950        C951   1.419       .  A
C951        C952   1.395       .  A
C952        H956   1.084       .  S
C952        C953   1.401       .  A
C953       C1585   1.474   1_545  S
C953        C954   1.399       .  A
C954        H957   1.085   1_545  S
C958       C1588   1.463       .  S
C958        C959   1.395       .  A
C958        C963   1.395       .  A
C959        H964   1.084       .  S
C959        C960   1.398       .  A
C960       C1573   1.464       .  S
C960        C961   1.396       .  A
C961        H965   1.084       .  S
C961        C962   1.396       .  A
C962       C1561   1.459       .  S
C962        C963   1.393       .  A
C963        H966   1.085       .  S
C967        C968   1.418       .  A
C967        C972   1.395       .  A
C968        H973   1.083       .  S
C968        C969   1.416       .  A
C969        C970   1.389       .  A
C970        H974   1.085   1_556  S
C970        C971   1.398       .  A
C971       C1576   1.468   1_556  S
C971        C972   1.397       .  A
C972        H975   1.084       .  S
C976        C977   1.392       .  A
C976        C981   1.417       .  A
C977        H982   1.085       .  S
C977        C978   1.395       .  A
C978       C1564   1.450       .  S
C978        C979   1.391       .  A
C979        H983   1.085       .  S
C979        C980   1.390       .  A
C980        C981   1.418       .  A
C981        H984   1.083       .  S
C985       C1537   1.498       .  S
C985        C986   1.405       .  A
C985        C990   1.409       .  A
C986        H991   1.079       .  S
C986        C987   1.402       .  A
C987       C1525   1.472       .  S
C987        C988   1.395       .  A
C988        H992   1.083       .  S
C988        C989   1.388       .  A
C989       C1549   1.456       .  S
C989        C990   1.392       .  A
C990        H993   1.080       .  S
C994        C995   1.415       .  A
C994        C999   1.396       .  A
C995       H1000   1.083       .  S
C995        C996   1.414       .  A
C996        C997   1.393       .  A
C997       H1001   1.078   1_455  S
C997        C998   1.402       .  A
C998       C1540   1.497   1_455  S
C998        C999   1.410       .  A
C999       H1002   1.080       .  S
C1003      C1004   1.393       .  A
C1003      C1008   1.421       .  A
C1004      H1009   1.085       .  S
C1004      C1005   1.395       .  A
C1005      C1528   1.461       .  S
C1005      C1006   1.396       .  A
C1006      H1010   1.085       .  S
C1006      C1007   1.393       .  A
C1007      C1098   1.479       .  S
C1007      C1008   1.419       .  A
C1008      H1011   1.083       .  S
C1012      C1013   1.420       .  A
C1012      C1017   1.394       .  A
C1013      H1018   1.083       .  S
C1013      C1014   1.421       .  A
C1014      C1015   1.391       .  A
C1015      H1019   1.085       .  S
C1015      C1016   1.393       .  A
C1016      C1552   1.452       .  S
C1016      C1017   1.394       .  A
C1017      H1020   1.085       .  S
C1021      C1022   1.419       .  A
C1021      C1026   1.391       .  A
C1022      H1027   1.083       .  S
C1022      C1023   1.420       .  A
C1023      C1024   1.395       .  A
C1024      H1028   1.085   1_655  S
C1024      C1025   1.397       .  A
C1025      C1513   1.463   1_655  S
C1025      C1026   1.394       .  A
C1026      H1029   1.085       .  S
C1030      C1504   1.451       .  S
C1030      C1031   1.392       .  A
C1030      C1035   1.390       .  A
C1031      H1036   1.085       .  S
C1031      C1032   1.398       .  A
C1032      C1516   1.468       .  S
C1032      C1033   1.398       .  A
C1033      H1037   1.083       .  S
C1033      C1034   1.394       .  A
C1034      C1489   1.451       .  S
C1034      C1035   1.391       .  A
C1035      H1038   1.085       .  S
C1039      C1186   1.482       .  S
C1039      C1040   1.393       .  A
C1039      C1044   1.422       .  A
C1040      H1045   1.085       .  S
C1040      C1041   1.393       .  A
C1041      C1492   1.453   1_545  S
C1041      C1042   1.392       .  A
C1042      H1046   1.085   1_545  S
C1042      C1043   1.393       .  A
C1043      C1044   1.421       .  A
C1044      H1047   1.083       .  S
C1048      C1049   1.390       .  A
C1048      C1053   1.421       .  A
C1049      H1054   1.085       .  S
C1049      C1050   1.392       .  A
C1050      C1501   1.450       .  S
C1050      C1051   1.394       .  A
C1051      H1055   1.085       .  S
C1051      C1052   1.392       .  A
C1052      C1338   1.479       .  S
C1052      C1053   1.422       .  A
C1053      H1056   1.083       .  S
C1057      C1058   1.395       .  A
C1057      C1062   1.425       .  A
C1058      H1063   1.085   1_565  S
C1058      C1059   1.394       .  A
C1059      C1477   1.460   1_565  S
C1059      C1060   1.395       .  A
C1060      H1064   1.085       .  S
C1060      C1061   1.390       .  A
C1061      C1302   1.482       .  S
C1061      C1062   1.425       .  A
C1062      H1065   1.083       .  S
C1066      C1465   1.461       .  S
C1066      C1067   1.395       .  A
C1066      C1071   1.394       .  A
C1067      H1072   1.081       .  S
C1067      C1068   1.398       .  A
C1068      C1480   1.471       .  S
C1068      C1069   1.399       .  A
C1069      H1073   1.084       .  S
C1069      C1070   1.394       .  A
C1070      C1453   1.458       .  S
C1070      C1071   1.390       .  A
C1071      H1074   1.085       .  S
C1075      C1076   1.421       .  A
C1075      C1080   1.390       .  A
C1076      H1081   1.083       .  S
C1076      C1077   1.421       .  A
C1077      C1194   1.486       .  S
C1077      C1078   1.394       .  A
C1078      H1082   1.084       .  S
C1078      C1079   1.398       .  A
C1079      C1456   1.470   1_554  S
C1079      C1080   1.398       .  A
C1080      H1083   1.085   1_554  S
C1084      C1085   1.389       .  A
C1084      C1089   1.422       .  A
C1085      H1090   1.085       .  S
C1085      C1086   1.391       .  A
C1086      C1468   1.452       .  S
C1086      C1087   1.393       .  A
C1087      H1091   1.085       .  S
C1087      C1088   1.394       .  A
C1088      C1089   1.423       .  A
C1089      H1092   1.083       .  S
O1093     Mg1095   2.187       .  S
O1093     Mg1101   2.174       .  S
O1093      C1128   1.235       .  S
C1094      O1107   1.234       .  S
C1094      O1131   1.270       .  A
C1094      H1133   1.080       .  S
Mg1095     O1124   2.153   1_545  S
Mg1095     O1139   2.309       .  S
Mg1095     O1135   2.310   1_545  S
Mg1095     O1106   2.318   1_445  S
O1096     Mg1138   2.167       .  S
O1096     Mg1121   2.180       .  S
O1096      C1117   1.235       .  S
O1097      C1128   1.271       .  A
O1097     Mg1121   2.313   1_455  S
C1098      O1100   1.273       .  A
C1098      O1112   1.274       .  A
O1099      C1127   1.270       .  A
O1099     Mg1101   2.313   1_565  S
O1100     Mg1132   2.301       .  S
Mg1101     O1107   2.176       .  S
Mg1101     O1115   2.297       .  S
Mg1101     O1103   2.304       .  S
C1102      O1140   1.272       .  A
C1102      O1108   1.274       .  A
O1103      C1110   1.274       .  A
H1104      C1117   1.081       .  S
C1105      O1119   1.232       .  S
C1105      O1120   1.268       .  A
C1105      H1130   1.081       .  S
O1106      C1129   1.272       .  A
O1107     Mg1121   2.167   1_455  S
O1108     Mg1138   2.297   1_565  S
C1109      O1122   1.271       .  A
C1109      O1114   1.273       .  A
C1110      O1137   1.273       .  A
C1110      C1159   1.481       .  S
Mg1111     O1118   2.179       .  S
Mg1111     O1119   2.157       .  S
Mg1111     O1112   2.300       .  S
Mg1111     O1113   2.314   1_565  S
Mg1111     O1140   2.302       .  S
O1113      C1117   1.271       .  A
O1114     Mg1121   2.298       .  S
O1115      C1134   1.272       .  A
O1116      C1136   1.272       .  A
O1116     Mg1132   2.293   1_455  S
O1118     Mg1132   2.165       .  S
O1118      C1129   1.235       .  S
O1119     Mg1138   2.167   1_565  S
O1120     Mg1132   2.305       .  S
Mg1121     O1137   2.304   1_655  S
O1122     Mg1138   2.281       .  S
H1123      C1128   1.081       .  S
O1124     Mg1132   2.191   1_455  S
O1124      C1127   1.233       .  S
H1125      C1127   1.079       .  S
H1126      C1129   1.081       .  S
O1131     Mg1138   2.308   1_455  S
C1134      O1139   1.276       .  A
O1135      C1136   1.274       .  A
C1136      C1272   1.481       .  S
C1141      C1142   1.421       .  A
C1141      C1146   1.394       .  A
C1142      H1147   1.083       .  S
C1142      C1143   1.423       .  A
C1143      C1144   1.392       .  A
C1144      H1148   1.085       .  S
C1144      C1145   1.392       .  A
C1145      C1441   1.449   1_655  S
C1145      C1146   1.387       .  A
C1146      H1149   1.085   1_655  S
C1150      C1444   1.451       .  S
C1150      C1151   1.392       .  A
C1150      C1155   1.390       .  A
C1151      H1156   1.084       .  S
C1151      C1152   1.396       .  A
C1152      C1417   1.471       .  S
C1152      C1153   1.401       .  A
C1153      H1157   1.084       .  S
C1153      C1154   1.395       .  A
C1154      C1432   1.455       .  S
C1154      C1155   1.394       .  A
C1155      H1158   1.084       .  S
C1159      C1160   1.392       .  A
C1159      C1164   1.420       .  A
C1160      H1165   1.084       .  S
C1160      C1161   1.401       .  A
C1161      C1420   1.474       .  S
C1161      C1162   1.398       .  A
C1162      H1166   1.084       .  S
C1162      C1163   1.394       .  A
C1163      C1182   1.485       .  S
C1163      C1164   1.420       .  A
C1164      H1167   1.083       .  S
C1168      C1314   1.480       .  S
C1168      C1169   1.394       .  A
C1168      C1173   1.420       .  A
C1169      H1174   1.085       .  S
C1169      C1170   1.394       .  A
C1170      C1429   1.451       .  S
C1170      C1171   1.393       .  A
C1171      H1175   1.085       .  S
C1171      C1172   1.391       .  A
C1172      C1173   1.420       .  A
C1173      H1176   1.083       .  S
O1177     Mg1179   2.169       .  S
O1177     Mg1185   2.176       .  S
O1177      C1212   1.233       .  S
C1178      O1191   1.233       .  S
C1178      O1215   1.267       .  A
C1178      H1217   1.081       .  S
Mg1179     O1208   2.212       .  S
Mg1179     O1223   2.310       .  S
Mg1179     O1219   2.288       .  S
Mg1179     O1190   2.219       .  S
O1180     Mg1222   2.188       .  S
O1180     Mg1205   2.193       .  S
O1180      C1201   1.234       .  S
O1181      C1212   1.267       .  A
O1181     Mg1205   2.294       .  S
C1182      O1184   1.278       .  A
C1182      O1196   1.276       .  A
O1183      C1211   1.267       .  A
O1183     Mg1185   2.296       .  S
O1184     Mg1216   2.289       .  S
Mg1185     O1191   2.174       .  S
Mg1185     O1199   2.281       .  S
Mg1185     O1187   2.317       .  S
C1186      O1224   1.276       .  A
C1186      O1192   1.276       .  A
O1187      C1194   1.275       .  A
H1188      C1201   1.081       .  S
C1189      O1203   1.233       .  S
C1189      O1204   1.267       .  A
C1189      H1214   1.081       .  S
O1190      C1213   1.257       .  A
O1191     Mg1205   2.185       .  S
O1192     Mg1222   2.321       .  S
C1193      O1206   1.277       .  A
C1193      O1198   1.274       .  A
C1194      O1221   1.278       .  A
Mg1195     O1202   2.165       .  S
Mg1195     O1203   2.188       .  S
Mg1195     O1196   2.321       .  S
Mg1195     O1197   2.310       .  S
Mg1195     O1224   2.281       .  S
O1197      C1201   1.270       .  A
O1198     Mg1205   2.317       .  S
O1199      C1218   1.278       .  A
O1200      C1220   1.279       .  A
O1200     Mg1216   2.328       .  S
O1202     Mg1216   2.204       .  S
O1202      C1213   1.224       .  S
O1203     Mg1222   2.174       .  S
O1204     Mg1216   2.294       .  S
Mg1205     O1221   2.290       .  S
O1206     Mg1222   2.288       .  S
H1207      C1212   1.081       .  S
O1208     Mg1216   2.231       .  S
O1208      C1211   1.232       .  S
H1209      C1211   1.081       .  S
H1210      C1213   1.080       .  S
O1215     Mg1222   2.291       .  S
C1218      O1223   1.275       .  A
O1219      C1220   1.279       .  A
C1220      C1245   1.484       .  S
C1225      C1384   1.469       .  S
C1225      C1226   1.398       .  A
C1225      C1230   1.398       .  A
C1226      H1231   1.084       .  S
C1226      C1227   1.390       .  A
C1227      C1405   1.456       .  S
C1227      C1228   1.394       .  A
C1228      H1232   1.084       .  S
C1228      C1229   1.398       .  A
C1229      C1393   1.469       .  S
C1229      C1230   1.398       .  A
C1230      H1233   1.082       .  S
C1234      C1235   1.393       .  A
C1234      C1239   1.421       .  A
C1235      H1240   1.085   1_556  S
C1235      C1236   1.393       .  A
C1236      C1381   1.460   1_556  S
C1236      C1237   1.393       .  A
C1237      H1241   1.085       .  S
C1237      C1238   1.394       .  A
C1238      C1239   1.420       .  A
C1239      H1242   1.083       .  S
C1243      C1244   1.420       .  A
C1243      C1248   1.391       .  A
C1244      H1249   1.083       .  S
C1244      C1245   1.421       .  A
C1245      C1246   1.396       .  A
C1246      H1250   1.085       .  S
C1246      C1247   1.395       .  A
C1247      C1396   1.457   1_455  S
C1247      C1248   1.392       .  A
C1248      H1251   1.085   1_455  S
C1252      C1253   1.424       .  A
C1252      C1257   1.392       .  A
C1253      H1258   1.083       .  S
C1253      C1254   1.425       .  A
C1254      C1255   1.393       .  A
C1255      H1259   1.085       .  S
C1255      C1256   1.393       .  A
C1256      C1408   1.452       .  S
C1256      C1257   1.393       .  A
C1257      H1260   1.085       .  S
C1261      C1369   1.495       .  S
C1261      C1262   1.408       .  A
C1261      C1266   1.407       .  A
C1262      H1267   1.075       .  S
C1262      C1263   1.398       .  A
C1263      C1357   1.466       .  S
C1263      C1264   1.390       .  A
C1264      H1268   1.085       .  S
C1264      C1265   1.388       .  A
C1265      C1345   1.462       .  S
C1265      C1266   1.393       .  A
C1266      H1269   1.081       .  S
C1270      C1340   1.477       .  S
C1270      C1271   1.414       .  A
C1270      C1275   1.393       .  A
C1271      H1276   1.083       .  S
C1271      C1272   1.414       .  A
C1272      C1273   1.393       .  A
C1273      H1277   1.079   1_455  S
C1273      C1274   1.407       .  A
C1274      C1372   1.496   1_455  S
C1274      C1275   1.407       .  A
C1275      H1278   1.081       .  S
C1279      C1280   1.423       .  A
C1279      C1284   1.392       .  A
C1280      H1285   1.083       .  S
C1280      C1281   1.424       .  A
C1281      C1282   1.396       .  A
C1282      H1286   1.084   1_545  S
C1282      C1283   1.394       .  A
C1283      C1348   1.464   1_545  S
C1283      C1284   1.392       .  A
C1284      H1287   1.085       .  S
C1288      C1289   1.394       .  A
C1288      C1293   1.420       .  A
C1289      H1294   1.084       .  S
C1289      C1290   1.401       .  A
C1290      C1360   1.473   1_554  S
C1290      C1291   1.397       .  A
C1291      H1295   1.084   1_554  S
C1291      C1292   1.390       .  A
C1292      C1293   1.420       .  A
C1293      H1296   1.083       .  S
O1297     Mg1299   2.179       .  S
O1297     Mg1305   2.157       .  S
O1297      C1332   1.235       .  S
C1298      O1311   1.234       .  S
C1298      O1335   1.270       .  A
C1298      H1337   1.081       .  S
Mg1299     O1328   2.170       .  S
Mg1299     O1343   2.308       .  S
Mg1299     O1339   2.299       .  S
Mg1299     O1310   2.308       .  S
O1300     Mg1342   2.171       .  S
O1300     Mg1325   2.182       .  S
O1300      C1321   1.233       .  S
O1301      C1332   1.272       .  A
O1301     Mg1325   2.317       .  S
C1302      O1304   1.273       .  A
C1302      O1316   1.275       .  A
O1303      C1331   1.271       .  A
O1303     Mg1305   2.313       .  S
O1304     Mg1336   2.303       .  S
Mg1305     O1311   2.177       .  S
Mg1305     O1319   2.296       .  S
Mg1305     O1307   2.294       .  S
C1306      O1344   1.273       .  A
C1306      O1312   1.275       .  A
O1307      C1314   1.273       .  A
H1308      C1321   1.081       .  S
C1309      O1323   1.235       .  S
C1309      O1324   1.271       .  A
C1309      H1334   1.081       .  S
O1310      C1333   1.269       .  A
O1311     Mg1325   2.161       .  S
O1312     Mg1342   2.304       .  S
C1313      O1326   1.274       .  A
C1313      O1318   1.275       .  A
C1314      O1341   1.273       .  A
Mg1315     O1322   2.169       .  S
Mg1315     O1323   2.169       .  S
Mg1315     O1316   2.308       .  S
Mg1315     O1317   2.308       .  S
Mg1315     O1344   2.295       .  S
O1317      C1321   1.269       .  A
O1318     Mg1325   2.305       .  S
O1319      C1338   1.272       .  A
O1320      C1340   1.273       .  A
O1320     Mg1336   2.294       .  S
O1322     Mg1336   2.156       .  S
O1322      C1333   1.229       .  S
O1323     Mg1342   2.180       .  S
O1324     Mg1336   2.311       .  S
Mg1325     O1341   2.311       .  S
O1326     Mg1342   2.305       .  S
H1327      C1332   1.081       .  S
O1328     Mg1336   2.186       .  S
O1328      C1331   1.234       .  S
H1329      C1331   1.081       .  S
H1330      C1333   1.075       .  S
O1335     Mg1342   2.307       .  S
C1338      O1343   1.275       .  A
O1339      C1340   1.273       .  A
C1345      C1346   1.402       .  A
C1345      C1350   1.410       .  A
C1346      H1351   1.085       .  S
C1346      C1347   1.392       .  A
C1347      C1348   1.410       .  A
C1347      C1354   1.445       .  S
C1348      C1349   1.401       .  A
C1349      H1352   1.085       .  S
C1349      C1350   1.388       .  A
C1350      C1353   1.446       .  S
C1353      N1355   1.157       .  T
C1354      N1356   1.157   1_565  T
C1357      C1358   1.403       .  A
C1357      C1362   1.406       .  A
C1358      H1363   1.086       .  S
C1358      C1359   1.388       .  A
C1359      C1360   1.411       .  A
C1359      C1366   1.446   1_556  S
C1360      C1361   1.408       .  A
C1361      H1364   1.085       .  S
C1361      C1362   1.393       .  A
C1362      C1365   1.443       .  S
C1365      N1367   1.157       .  T
C1366      N1368   1.158       .  T
C1369      C1370   1.409       .  A
C1369      C1374   1.416       .  A
C1370      H1375   1.081       .  S
C1370      C1371   1.390       .  A
C1371      C1372   1.417       .  A
C1371      C1378   1.446       .  S
C1372      C1373   1.410       .  A
C1373      H1376   1.081   1_655  S
C1373      C1374   1.394       .  A
C1374      C1377   1.445       .  S
C1377      N1379   1.158       .  T
C1378      N1380   1.158       .  T
C1381      C1382   1.400       .  A
C1381      C1386   1.407       .  A
C1382      H1387   1.085       .  S
C1382      C1383   1.391       .  A
C1383      C1384   1.412       .  A
C1383      C1390   1.445       .  S
C1384      C1385   1.405       .  A
C1385      H1388   1.085       .  S
C1385      C1386   1.389       .  A
C1386      C1389   1.446       .  S
C1389      N1391   1.157       .  T
C1390      N1392   1.157       .  T
C1393      C1394   1.403       .  A
C1393      C1398   1.413       .  A
C1394      H1399   1.085       .  S
C1394      C1395   1.390       .  A
C1395      C1396   1.406       .  A
C1395      C1402   1.445   1_655  S
C1396      C1397   1.397       .  A
C1397      H1400   1.085       .  S
C1397      C1398   1.392       .  A
C1398      C1401   1.442       .  S
C1401      N1403   1.156       .  T
C1402      N1404   1.157       .  T
C1405      C1406   1.397       .  A
C1405      C1410   1.405       .  A
C1406      H1411   1.081       .  S
C1406      C1407   1.394       .  A
C1407      C1408   1.407       .  A
C1407      C1414   1.444       .  S
C1408      C1409   1.397       .  A
C1409      H1412   1.085       .  S
C1409      C1410   1.388       .  A
C1410      C1413   1.439       .  S
C1413      N1415   1.155       .  T
C1414      N1416   1.157       .  T
C1417      C1418   1.401       .  A
C1417      C1422   1.413       .  A
C1418      H1423   1.085       .  S
C1418      C1419   1.392       .  A
C1419      C1420   1.414       .  A
C1419      C1426   1.445       .  S
C1420      C1421   1.402       .  A
C1421      H1424   1.085       .  S
C1421      C1422   1.390       .  A
C1422      C1425   1.443       .  S
C1425      N1427   1.157       .  T
C1426      N1428   1.157       .  T
C1429      C1430   1.396       .  A
C1429      C1434   1.407       .  A
C1430      H1435   1.086       .  S
C1430      C1431   1.386       .  A
C1431      C1432   1.404       .  A
C1431      C1438   1.438       .  S
C1432      C1433   1.401       .  A
C1433      H1436   1.085       .  S
C1433      C1434   1.396       .  A
C1434      C1437   1.444       .  S
C1437      N1439   1.157       .  T
C1438      N1440   1.154       .  T
C1441      C1442   1.394       .  A
C1441      C1446   1.408       .  A
C1442      H1447   1.086   1_455  S
C1442      C1443   1.381       .  A
C1443      C1444   1.400       .  A
C1443      C1450   1.433       .  S
C1444      C1445   1.400       .  A
C1445      H1448   1.085       .  S
C1445      C1446   1.396       .  A
C1446      C1449   1.444       .  S
C1449      N1451   1.157       .  T
C1450      N1452   1.152       .  T
C1453      C1454   1.398       .  A
C1453      C1458   1.407       .  A
C1454      H1459   1.085       .  S
C1454      C1455   1.391   1_556  A
C1455      C1456   1.414   1_554  A
C1455      C1462   1.445       .  S
C1456      C1457   1.404       .  A
C1457      H1460   1.085       .  S
C1457      C1458   1.389       .  A
C1458      C1461   1.444       .  S
C1461      N1463   1.157       .  T
C1462      N1464   1.157       .  T
C1465      C1466   1.404       .  A
C1465      C1470   1.409       .  A
C1466      H1471   1.085       .  S
C1466      C1467   1.388       .  A
C1467      C1468   1.404       .  A
C1467      C1474   1.445       .  S
C1468      C1469   1.399       .  A
C1469      H1472   1.085       .  S
C1469      C1470   1.389       .  A
C1470      C1473   1.443       .  S
C1473      N1475   1.157       .  T
C1474      N1476   1.157       .  T
C1477      C1478   1.399       .  A
C1477      C1482   1.407       .  A
C1478      H1483   1.085       .  S
C1478      C1479   1.391       .  A
C1479      C1480   1.414       .  A
C1479      C1486   1.445       .  S
C1480      C1481   1.405       .  A
C1481      H1484   1.085       .  S
C1481      C1482   1.389       .  A
C1482      C1485   1.445       .  S
C1485      N1487   1.157   1_545  T
C1486      N1488   1.157       .  T
C1489      C1490   1.397       .  A
C1489      C1494   1.407       .  A
C1490      H1495   1.084       .  S
C1490      C1491   1.394       .  A
C1491      C1492   1.409       .  A
C1491      C1498   1.444       .  S
C1492      C1493   1.398       .  A
C1493      H1496   1.085   1_565  S
C1493      C1494   1.388       .  A
C1494      C1497   1.445       .  S
C1497      N1499   1.157       .  T
C1498      N1500   1.157       .  T
C1501      C1502   1.398       .  A
C1501      C1506   1.407       .  A
C1502      H1507   1.085       .  S
C1502      C1503   1.389       .  A
C1503      C1504   1.406       .  A
C1503      C1510   1.442       .  S
C1504      C1505   1.398       .  A
C1505      H1508   1.085       .  S
C1505      C1506   1.391       .  A
C1506      C1509   1.444       .  S
C1509      N1511   1.157       .  T
C1510      N1512   1.156       .  T
C1513      C1514   1.401       .  A
C1513      C1518   1.409       .  A
C1514      H1519   1.085       .  S
C1514      C1515   1.393       .  A
C1515      C1516   1.413       .  A
C1515      C1522   1.445       .  S
C1516      C1517   1.402       .  A
C1517      H1520   1.085       .  S
C1517      C1518   1.388       .  A
C1518      C1521   1.445       .  S
C1521      N1523   1.157       .  T
C1522      N1524   1.157       .  T
C1525      C1526   1.405       .  A
C1525      C1530   1.412       .  A
C1526      H1531   1.082       .  S
C1526      C1527   1.388       .  A
C1527      C1528   1.406       .  A
C1527      C1534   1.446       .  S
C1528      C1529   1.401       .  A
C1529      H1532   1.085       .  S
C1529      C1530   1.394       .  A
C1530      C1533   1.443       .  S
C1533      N1535   1.157       .  T
C1534      N1536   1.157       .  T
C1537      C1538   1.407       .  A
C1537      C1542   1.421       .  A
C1538      H1543   1.080       .  S
C1538      C1539   1.391       .  A
C1539      C1540   1.419       .  A
C1539      C1546   1.446       .  S
C1540      C1541   1.406       .  A
C1541      H1544   1.081   1_655  S
C1541      C1542   1.393       .  A
C1542      C1545   1.444       .  S
C1545      N1547   1.157       .  T
C1546      N1548   1.158       .  T
C1549      C1550   1.401       .  A
C1549      C1554   1.401       .  A
C1550      H1555   1.085       .  S
C1550      C1551   1.394       .  A
C1551      C1552   1.406       .  A
C1551      C1558   1.444       .  S
C1552      C1553   1.397       .  A
C1553      H1556   1.085       .  S
C1553      C1554   1.388       .  A
C1554      C1557   1.434       .  S
C1557      N1559   1.153       .  T
C1558      N1560   1.157       .  T
C1561      C1562   1.403       .  A
C1561      C1566   1.407       .  A
C1562      H1567   1.085       .  S
C1562      C1563   1.394       .  A
C1563      C1564   1.405       .  A
C1563      C1570   1.443       .  S
C1564      C1565   1.395       .  A
C1565      H1568   1.086       .  S
C1565      C1566   1.385       .  A
C1566      C1569   1.437       .  S
C1569      N1571   1.154       .  T
C1570      N1572   1.157       .  T
C1573      C1574   1.402       .  A
C1573      C1578   1.408       .  A
C1574      H1579   1.084       .  S
C1574      C1575   1.393   1_554  A
C1575      C1576   1.411   1_556  A
C1575      C1582   1.445       .  S
C1576      C1577   1.400       .  A
C1577      H1580   1.085       .  S
C1577      C1578   1.386       .  A
C1578      C1581   1.439       .  S
C1581      N1583   1.155       .  T
C1582      N1584   1.157       .  T
C1585      C1586   1.405       .  A
C1585      C1590   1.413   1_565  A
C1586      H1591   1.085       .  S
C1586      C1587   1.390       .  A
C1587      C1588   1.407       .  A
C1587      C1594   1.444       .  S
C1588      C1589   1.400       .  A
C1589      H1592   1.085       .  S
C1589      C1590   1.393   1_565  A
C1590      C1593   1.445       .  S
C1593      N1595   1.157       .  T
C1594      N1596   1.157       .  T
C1597      C1598   1.401       .  A
C1597      C1602   1.409       .  A
C1598      H1603   1.086       .  S
C1598      C1599   1.389       .  A
C1599      C1600   1.410       .  A
C1599      C1606   1.446       .  S
C1600      C1601   1.403       .  A
C1601      H1604   1.085       .  S
C1601      C1602   1.393       .  A
C1602      C1605   1.445       .  S
C1605      N1607   1.157       .  T
C1606      N1608   1.157       .  T
C1609      C1610   1.408       .  A
C1609      C1614   1.415       .  A
C1610      H1615   1.081       .  S
C1610      C1611   1.392       .  A
C1611      C1612   1.418       .  A
C1611      C1618   1.445       .  S
C1612      C1613   1.409       .  A
C1613      H1616   1.081   1_455  S
C1613      C1614   1.388       .  A
C1614      C1617   1.446       .  S
C1617      N1619   1.158       .  T
C1618      N1620   1.158       .  T
C1621      C1622   1.404       .  A
C1621      C1626   1.411       .  A
C1622      H1627   1.085       .  S
C1622      C1623   1.389       .  A
C1623      C1624   1.410       .  A
C1623      C1630   1.441       .  S
C1624      C1625   1.403       .  A
C1625      H1628   1.085       .  S
C1625      C1626   1.388       .  A
C1626      C1629   1.446   1_556  S
C1629      N1631   1.157       .  T
C1630      N1632   1.157       .  T
C1633      C1634   1.404   1_545  A
C1633      C1638   1.414       .  A
C1634      H1639   1.085       .  S
C1634      C1635   1.391   1_565  A
C1635      C1636   1.407       .  A
C1635      C1642   1.445       .  S
C1636      C1637   1.399       .  A
C1637      H1640   1.085       .  S
C1637      C1638   1.391       .  A
C1638      C1641   1.446       .  S
C1641      N1643   1.158       .  T
C1642      N1644   1.157   1_545  T
C1645      C1646   1.399       .  A
C1645      C1650   1.406       .  A
C1646      H1651   1.085       .  S
C1646      C1647   1.391       .  A
C1647      C1648   1.412       .  A
C1647      C1654   1.444       .  S
C1648      C1649   1.404       .  A
C1649      H1652   1.085       .  S
C1649      C1650   1.391       .  A
C1650      C1653   1.445       .  S
C1653      N1655   1.157       .  T
C1654      N1656   1.157       .  T
C1657      C1658   1.401       .  A
C1657      C1662   1.409   1_455  A
C1658      H1663   1.085       .  S
C1658      C1659   1.390       .  A
C1659      C1660   1.404       .  A
C1659      C1666   1.443       .  S
C1660      C1661   1.398       .  A
C1661      H1664   1.085       .  S
C1661      C1662   1.391   1_455  A
C1662      C1665   1.445       .  S
C1665      N1667   1.157       .  T
C1666      N1668   1.157       .  T
C1669      C1670   1.403       .  A
C1669      C1674   1.408       .  A
C1670      H1675   1.085       .  S
C1670      C1671   1.396       .  A
C1671      C1672   1.411       .  A
C1671      C1678   1.443       .  S
C1672      C1673   1.403       .  A
C1673      H1676   1.084       .  S
C1673      C1674   1.386       .  A
C1674      C1677   1.446       .  S
C1677      N1679   1.157       .  T
C1678      N1680   1.157       .  T
C1681      C1682   1.406       .  A
C1681      C1686   1.415       .  A
C1682      H1687   1.083       .  S
C1682      C1683   1.393       .  A
C1683      C1684   1.420       .  A
C1683      C1690   1.445       .  S
C1684      C1685   1.408       .  A
C1685      H1688   1.081   1_655  S
C1685      C1686   1.393       .  A
C1686      C1689   1.445       .  S
C1689      N1691   1.157       .  T
C1690      N1692   1.158       .  T
C1693      C1694   1.403       .  A
C1693      C1698   1.410       .  A
C1694      H1699   1.085       .  S
C1694      C1695   1.388       .  A
C1695      C1696   1.410       .  A
C1695      C1702   1.446       .  S
C1696      C1697   1.403       .  A
C1697      H1700   1.085       .  S
C1697      C1698   1.395       .  A
C1698      C1701   1.444       .  S
C1701      N1703   1.157       .  T
C1702      N1704   1.158       .  T
C1705      C1706   1.399       .  A
C1705      C1710   1.404       .  A
C1706      H1711   1.085       .  S
C1706      C1707   1.390       .  A
C1707      C1708   1.410       .  A
C1707      C1714   1.443       .  S
C1708      C1709   1.405       .  A
C1709      H1712   1.084       .  S
C1709      C1710   1.388       .  A
C1710      C1713   1.446       .  S
C1713      N1715   1.157       .  T
C1714      N1716   1.157       .  T
C1717      C1718   1.397       .  A
C1717      C1722   1.407       .  A
C1718      H1723   1.085       .  S
C1718      C1719   1.389       .  A
C1719      C1720   1.405       .  A
C1719      C1726   1.439       .  S
C1720      C1721   1.400       .  A
C1721      H1724   1.085       .  S
C1721      C1722   1.394       .  A
C1722      C1725   1.444       .  S
C1725      N1727   1.157       .  T
C1726      N1728   1.155       .  T
C1729      C1730   1.401       .  A
C1729      C1734   1.416       .  A
C1730      H1735   1.085   1_554  S
C1730      C1731   1.390       .  A
C1731      C1732   1.412       .  A
C1731      C1738   1.443       .  S
C1732      C1733   1.397       .  A
C1733      H1736   1.085       .  S
C1733      C1734   1.390       .  A
C1734      C1737   1.445       .  S
C1737      N1739   1.157       .  T
C1738      N1740   1.156       .  T
C1741      C1742   1.404       .  A
C1741      C1746   1.412       .  A
C1742      H1747   1.085       .  S
C1742      C1743   1.391       .  A
C1743      C1744   1.405       .  A
C1743      C1750   1.445       .  S
C1744      C1745   1.399       .  A
C1745      H1748   1.085       .  S
C1745      C1746   1.392       .  A
C1746      C1749   1.443       .  S
C1749      N1751   1.157       .  T
C1750      N1752   1.157       .  T
C1753      C1754   1.407       .  A
C1753      C1758   1.416       .  A
C1754      H1759   1.085       .  S
C1754      C1755   1.393       .  A
C1755      C1756   1.407       .  A
C1755      C1762   1.445       .  S
C1756      C1757   1.397       .  A
C1757      H1760   1.086       .  S
C1757      C1758   1.388       .  A
C1758      C1761   1.441       .  S
C1761      N1763   1.156       .  T
C1762      N1764   1.157       .  T
C1765      C1766   1.402       .  A
C1765      C1770   1.413   1_556  A
C1766      H1771   1.085       .  S
C1766      C1767   1.388       .  A
C1767      C1768   1.405       .  A
C1767      C1774   1.442       .  S
C1768      C1769   1.398       .  A
C1769      H1772   1.084       .  S
C1769      C1770   1.394   1_556  A
C1770      C1773   1.445       .  S
C1773      N1775   1.157       .  T
C1774      N1776   1.156       .  T
C1777      C1778   1.399       .  A
C1777      C1782   1.406       .  A
C1778      H1783   1.085       .  S
C1778      C1779   1.391       .  A
C1779      C1780   1.411       .  A
C1779      C1786   1.443       .  S
C1780      C1781   1.404       .  A
C1781      H1784   1.084       .  S
C1781      C1782   1.389       .  A
C1782      C1785   1.445       .  S
C1785      N1787   1.157       .  T
C1786      N1788   1.157       .  T
C1789      C1790   1.405       .  A
C1789      C1794   1.414       .  A
C1790      H1795   1.085       .  S
C1790      C1791   1.392       .  A
C1791      C1792   1.407       .  A
C1791      C1798   1.445       .  S
C1792      C1793   1.399       .  A
C1793      H1796   1.086       .  S
C1793      C1794   1.389       .  A
C1794      C1797   1.445       .  S
C1797      N1799   1.157       .  T
C1798      N1800   1.157       .  T
C1801      C1802   1.405       .  A
C1801      C1806   1.414       .  A
C1802      H1807   1.085   1_565  S
C1802      C1803   1.388       .  A
C1803      C1804   1.407       .  A
C1803      C1810   1.444       .  S
C1804      C1805   1.400       .  A
C1805      H1808   1.085       .  S
C1805      C1806   1.392       .  A
C1806      C1809   1.445       .  S
C1809      N1811   1.157       .  T
C1810      N1812   1.157       .  T
C1813      C1814   1.404       .  A
C1813      C1818   1.414       .  A
C1814      H1819   1.084       .  S
C1814      C1815   1.388       .  A
C1815      C1816   1.409       .  A
C1815      C1822   1.443       .  S
C1816      C1817   1.401       .  A
C1817      H1820   1.085       .  S
C1817      C1818   1.391       .  A
C1818      C1821   1.446       .  S
C1821      N1823   1.158       .  T
C1822      N1824   1.157       .  T
C1825      C1826   1.399       .  A
C1825      C1830   1.411       .  A
C1826      H1831   1.086       .  S
C1826      C1827   1.389       .  A
C1827      C1828   1.416       .  A
C1827      C1834   1.446       .  S
C1828      C1829   1.403       .  A
C1829      H1832   1.085       .  S
C1829      C1830   1.389       .  A
C1830      C1833   1.443       .  S
C1833      N1835   1.157       .  T
C1834      N1836   1.158       .  T
C1837      C1838   1.399       .  A
C1837      C1842   1.407       .  A
C1838      H1843   1.085       .  S
C1838      C1839   1.389       .  A
C1839      C1840   1.409       .  A
C1839      C1846   1.443       .  S
C1840      C1841   1.402       .  A
C1841      H1844   1.085       .  S
C1841      C1842   1.395       .  A
C1842      C1845   1.444       .  S
C1845      N1847   1.157       .  T
C1846      N1848   1.156       .  T
C1849      C1850   1.399       .  A
C1849      C1854   1.404       .  A
C1850      H1855   1.085       .  S
C1850      C1851   1.391       .  A
C1851      C1852   1.409       .  A
C1851      C1858   1.445       .  S
C1852      C1853   1.399       .  A
C1853      H1856   1.085       .  S
C1853      C1854   1.388       .  A
C1854      C1857   1.442       .  S
C1857      N1859   1.156       .  T
C1858      N1860   1.157       .  T
C1861      C1862   1.400       .  A
C1861      C1866   1.409       .  A
C1862      H1867   1.085       .  S
C1862      C1863   1.392       .  A
C1863      C1864   1.414       .  A
C1863      C1870   1.445       .  S
C1864      C1865   1.403       .  A
C1865      H1868   1.085       .  S
C1865      C1866   1.388       .  A
C1866      C1869   1.444       .  S
C1869      N1871   1.157       .  T
C1870      N1872   1.157       .  T
C1873      C1874   1.404       .  A
C1873      C1878   1.412       .  A
C1874      H1879   1.085       .  S
C1874      C1875   1.392       .  A
C1875      C1876   1.407       .  A
C1875      C1882   1.445       .  S
C1876      C1877   1.399       .  A
C1877      H1880   1.085       .  S
C1877      C1878   1.391       .  A
C1878      C1881   1.443       .  S
C1881      N1883   1.157       .  T
C1882      N1884   1.157       .  T
C1885      C1886   1.404       .  A
C1885      C1890   1.414       .  A
C1886      H1891   1.085       .  S
C1886      C1887   1.391       .  A
C1887      C1888   1.409       .  A
C1887      C1894   1.446       .  S
C1888      C1889   1.399       .  A
C1889      H1892   1.085       .  S
C1889      C1890   1.391       .  A
C1890      C1893   1.445       .  S
C1893      N1895   1.157       .  T
C1894      N1896   1.157       .  T
C1897      C1898   1.398       .  A
C1897      C1902   1.406       .  A
C1898      H1903   1.086       .  S
C1898      C1899   1.389       .  A
C1899      C1900   1.412       .  A
C1899      C1906   1.443       .  S
C1900      C1901   1.405       .  A
C1901      H1904   1.085       .  S
C1901      C1902   1.394       .  A
C1902      C1905   1.444       .  S
C1905      N1907   1.157       .  T
C1906      N1908   1.156       .  T
C1909      C1910   1.398       .  A
C1909      C1914   1.406       .  A
C1910      H1915   1.085       .  S
C1910      C1911   1.389       .  A
C1911      C1912   1.413       .  A
C1911      C1918   1.444       .  S
C1912      C1913   1.405       .  A
C1913      H1916   1.085       .  S
C1913      C1914   1.393       .  A
C1914      C1917   1.445       .  S
C1917      N1919   1.157       .  T
C1918      N1920   1.157       .  T
