geometry optimzed in LAMMPS
_audit_creation_date              2020-11-30 
_audit_creation_method            'lammps2cif' 
_symmetry_space_group_name_H-M    'P1' 
_symmetry_Int_Tables_number       1 
_symmetry_cell_setting            triclinic 
loop_ 
_symmetry_equiv_pos_as_xyz 
  x,y,z 
_cell_length_a                    36.23755591 
_cell_length_b                    36.21923075883882 
_cell_length_c                    37.357241040645185 
_cell_angle_alpha                 90.80132285232096 
_cell_angle_beta                  90.26809016855081 
_cell_angle_gamma                 88.11208615549876 
loop_ 
_atom_site_label 
_atom_site_type_symbol 
_atom_site_fract_x 
_atom_site_fract_y 
_atom_site_fract_z 
_atom_site_charge 
O1          O  0.55560602  0.93695118  0.49317273    -0.80700
O2          O  0.45469016  0.94578067  0.50848277    -0.80800
O3          O  0.51676174  0.95955602  0.56025909    -0.80800
O4          O  0.47049500  0.98328163  0.41367256    -0.80700
O5          O  0.46038296  0.97099246  0.57954072    -0.80800
O6          O  0.50735688  0.93796592  0.43336797    -0.80700
O7          O  0.42483867  0.98232320  0.47063550    -0.80700
O8          O  0.57966603  0.97629557  0.52987599    -0.80800
C9          C  0.58266770  0.94609145  0.51242214     1.09000
C10         C  0.42652570  0.95284827  0.48938424     1.08800
C11         C  0.49209057  0.95566541  0.58437690     1.09000
C12         C  0.48441811  0.95090161  0.41048551     1.08900
O13         O  0.53675247  0.00631236  0.41379319    -0.80700
O14         O  0.48936106  0.03590820  0.56070912    -0.80800
O15         O  0.55405058  0.04733685  0.50851822    -0.80700
O16         O  0.45338907  0.05473834  0.49271399    -0.80700
O17         O  0.42625440  0.01795501  0.52776629    -0.80800
O18         O  0.58234724  0.00818115  0.47097744    -0.80700
O19         O  0.49975574  0.05212177  0.43320636    -0.80700
O20         O  0.54564939  0.02482514  0.58022002    -0.80800
Co21       Co  0.54309732  0.97263211  0.45518196     1.51500
Co22       Co  0.47478430  0.98865116  0.53297776     1.51700
Co23       Co  0.53183947  0.00604545  0.53318437     1.51600
Co24       Co  0.46424916  0.01803201  0.45486287     1.51500
O25         O  0.50374358  0.99619487  0.48730080    -1.42700
C26         C  0.52349231  0.03896831  0.41110249     1.08900
C27         C  0.51379520  0.03966342  0.58543115     1.09000
C28         C  0.58219042  0.03793022  0.48982454     1.08900
C29         C  0.42489302  0.04745361  0.50980068     1.08900
O30         O  0.93595124  0.55180151  0.50758299    -0.80700
O31         O  0.94390590  0.44701285  0.48710915    -0.80800
O32         O  0.95409408  0.51078080  0.43639244    -0.80800
O33         O  0.98386025  0.46485582  0.58322489    -0.80700
O34         O  0.96816613  0.45490976  0.41628960    -0.80800
O35         O  0.93905094  0.50386804  0.56584086    -0.80700
O36         O  0.98137329  0.41805758  0.52512823    -0.80700
O37         O  0.97307965  0.57492453  0.47003740    -0.80800
C38         C  0.94500530  0.57921536  0.48970964     1.09000
C39         C  0.95268856  0.41831550  0.50483630     1.08800
C40         C  0.95251452  0.48624931  0.41105335     1.09000
C41         C  0.95193094  0.47962986  0.58729563     1.08900
O42         O  0.00886942  0.53133335  0.58399662    -0.80700
O43         O  0.03164033  0.48648798  0.43576293    -0.80800
O44         O  0.04428968  0.54600944  0.48835600    -0.80700
O45         O  0.05273344  0.44603632  0.50301768    -0.80700
O46         O  0.01498512  0.42127044  0.46617227    -0.80800
O47         O  0.00970981  0.57768145  0.52694101    -0.80700
O48         O  0.05245446  0.49339962  0.56217871    -0.80700
O49         O  0.01711465  0.54310464  0.41896731    -0.80800
Co50       Co  0.97357975  0.53869142  0.54366596     1.51500
Co51       Co  0.98554568  0.46956613  0.46318958     1.51700
Co52       Co  0.00090582  0.52626535  0.46441205     1.51600
Co53       Co  0.01712126  0.45796536  0.54125364     1.51500
O54         O  0.99353354  0.49777555  0.50999971    -1.42700
C55         C  0.04113538  0.51702385  0.58537844     1.08900
C56         C  0.03393124  0.51254725  0.41276802     1.09000
C57         C  0.03803005  0.57528135  0.50640214     1.08900
C58         C  0.04382419  0.41798837  0.48520766     1.08900
O59         O  0.45592006  0.49483049  0.94611345    -0.80700
O60         O  0.55617429  0.51200464  0.95633690    -0.80800
O61         O  0.49330760  0.56498604  0.96832428    -0.80800
O62         O  0.54172501  0.41311093  0.98978758    -0.80700
O63         O  0.54863491  0.58287692  0.98406831    -0.80800
O64         O  0.50574750  0.43459061  0.94636191    -0.80700
O65         O  0.58646123  0.47164766  0.98993165    -0.80700
O66         O  0.42757073  0.53226512  0.98241708    -0.80800
C67         C  0.42637878  0.51188720  0.95470098     1.09000
C68         C  0.58515075  0.49267509  0.96253434     1.08800
C69         C  0.51878123  0.58910551  0.96719336     1.09000
C70         C  0.52867583  0.41067004  0.95847347     1.08900
O71         O  0.47505479  0.41207845  0.01194167    -0.80700
O72         O  0.51349966  0.56311198  0.04404890    -0.80800
O73         O  0.44984966  0.51097813  0.05147006    -0.80700
O74         O  0.55687095  0.49170299  0.06130737    -0.80700
O75         O  0.58099934  0.53017210  0.02621067    -0.80800
O76         O  0.42617347  0.47027479  0.01389443    -0.80700
O77         O  0.51035415  0.43152600  0.05664604    -0.80700
O78         O  0.45766839  0.58378476  0.02965548    -0.80800
Co79       Co  0.46803082  0.45525720  0.97998753     1.51500
Co80       Co  0.53297797  0.53553195  0.99850455     1.51700
Co81       Co  0.47444776  0.53595203  0.01200850     1.51600
Co82       Co  0.54630675  0.45448604  0.02424616     1.51500
O83         O  0.50529668  0.48833084  0.00415854    -1.42700
C84         C  0.48812595  0.40854738  0.04328740     1.08900
C85         C  0.48814030  0.58903859  0.04558511     1.09000
C86         C  0.42339986  0.49071189  0.04204166     1.08900
C87         C  0.58462677  0.50961332  0.05313548     1.08900
C88         C  0.57825189  0.92020858  0.77618347     0.79600
N89         N  0.60602663  0.89464864  0.77327268    -0.78700
C90         C  0.61266094  0.87564893  0.74266744     0.82100
N91         N  0.59004432  0.88173823  0.71408215    -0.78600
C92         C  0.56144952  0.90729563  0.71594167     0.82200
N93         N  0.55579913  0.92680861  0.74729562    -0.80300
C94         C  0.78803407  0.73903350  0.72123658     0.02500
C95         C  0.78761664  0.71039655  0.74615074    -0.13600
C96         C  0.75826706  0.70837601  0.77047644     0.00000
C97         C  0.72898508  0.73473541  0.76894799    -0.12100
C98         C  0.72930017  0.76308248  0.74377230     0.02500
C99         C  0.75897739  0.76534665  0.72028897    -0.11600
H100        H  0.80977138  0.68956440  0.74625614     0.08100
H101        H  0.70620238  0.73342851  0.78753683     0.05700
H102        H  0.75917408  0.78729808  0.70084713     0.05500
C103        C  0.94359481  0.78083240  0.57803732     0.79600
N104        N  0.94537785  0.75161180  0.55421099    -0.78700
C105        C  0.92313921  0.72212737  0.55832968     0.82100
N106        N  0.89950664  0.72264757  0.58624351    -0.78600
C107        C  0.89711365  0.75102531  0.60998516     0.82200
N108        N  0.91916502  0.78012683  0.60564440    -0.80300
C109        C  0.78403399  0.56676242  0.92811293     0.79600
N110        N  0.75383039  0.54614718  0.93444900    -0.78700
C111        C  0.72301477  0.54987541  0.91313517     0.82100
N112        N  0.72287647  0.57467675  0.88594246    -0.78600
C113        C  0.75261135  0.59541647  0.87954073     0.82200
N114        N  0.78257771  0.59119206  0.90097657    -0.80300
C115        C  0.27548903  0.23752374  0.74065836     0.02500
C116        C  0.24661514  0.23635440  0.71551606    -0.13600
C117        C  0.21896352  0.26432840  0.71491369     0.00000
C118        C  0.21988877  0.29363223  0.73984243    -0.12100
C119        C  0.24827262  0.29506411  0.76557733     0.02500
C120        C  0.27626355  0.26720501  0.76531126    -0.11600
H121        H  0.24552263  0.21360528  0.69641746     0.08100
H122        H  0.19853665  0.31526532  0.73909536     0.05700
H123        H  0.29858697  0.26847535  0.78462787     0.05500
C124        C  0.28668612  0.44450527  0.92063688     0.79600
N125        N  0.28573037  0.42209779  0.89111451    -0.78700
C126        C  0.25512174  0.40343840  0.88229118     0.82100
N127        N  0.22522935  0.40742269  0.90384301    -0.78600
C128        C  0.22485819  0.42976067  0.93338360     0.82200
N129        N  0.25601695  0.44850756  0.94182701    -0.80300
C130        C  0.42207040  0.07526955  0.77651723     0.79600
N131        N  0.39558241  0.10234134  0.77309539    -0.78700
C132        C  0.39172388  0.12220354  0.74276634     0.82100
N133        N  0.41535004  0.11472072  0.71531857    -0.78600
C134        C  0.44244989  0.08780166  0.71760508     0.82200
N135        N  0.44562037  0.06797542  0.74851778    -0.80300
C136        C  0.05928595  0.21945798  0.57562130     0.79600
N137        N  0.08415584  0.22268699  0.60280746    -0.78700
C138        C  0.10441630  0.25326653  0.60688800     0.82100
N139        N  0.09952920  0.28106581  0.58336274    -0.78600
C140        C  0.07485674  0.27923880  0.55600751     0.82200
N141        N  0.05458487  0.24809032  0.55223337    -0.80300
O142        O  0.48549495  0.02971899  0.91893824    -0.80700
O143        O  0.45989182  0.98579652  0.06514357    -0.80800
O144        O  0.44120219  0.94538849  0.99702087    -0.80800
O145        O  0.44541980  0.04899266  0.01285894    -0.80700
O146        O  0.48050571  0.92145254  0.03443172    -0.80800
O147        O  0.48258955  0.07675995  0.97610925    -0.80700
O148        O  0.46880906  0.04234287  0.08436580    -0.80700
O149        O  0.44192288  0.99267330  0.93694882    -0.80800
C150        C  0.45418990  0.01569181  0.91475460     1.09000
C151        C  0.45475777  0.01111257  0.08929843     1.08800
C152        C  0.45126305  0.91831096  0.01611494     1.09000
C153        C  0.45302846  0.07712625  0.99474960     1.08900
O154        O  0.55554491  0.04725941  0.99824844    -0.80700
O155        O  0.55087984  0.94603592  0.01448589    -0.80800
O156        O  0.51182614  0.96211990  0.91915050    -0.80700
O157        O  0.53523757  0.01080790  0.06611468    -0.80700
O158        O  0.52600907  0.95489062  0.08534337    -0.80800
O159        O  0.55515370  0.99935284  0.93846535    -0.80700
O160        O  0.51632470  0.07394427  0.03426214    -0.80700
O161        O  0.51476331  0.91662960  0.97657820    -0.80800
Co162      Co  0.51939205  0.03584018  0.96038637     1.51500
Co163      Co  0.50766238  0.96906345  0.03845012     1.51700
Co164      Co  0.47764730  0.95674284  0.95986808     1.51600
Co165      Co  0.48808370  0.02671294  0.03796953     1.51500
O166        O  0.49813610  0.99690927  0.99238748    -1.42700
C167        C  0.54639109  0.07517284  0.01717408     1.08900
C168        C  0.54369426  0.91710548  0.99647767     1.09000
C169        C  0.54308705  0.97618318  0.91575080     1.08900
C170        C  0.54022407  0.98615241  0.09030199     1.08900
C171        C  0.31461651  0.74100388  0.76433765     0.02500
C172        C  0.31409407  0.76193903  0.73306385    -0.13600
C173        C  0.29045777  0.75297965  0.70448135     0.00000
C174        C  0.26774317  0.72248254  0.70762056    -0.12100
C175        C  0.26737821  0.70216040  0.73925260     0.02500
C176        C  0.29133172  0.71114261  0.76729111    -0.11600
H177        H  0.33082149  0.78612198  0.73183328     0.08100
H178        H  0.24886154  0.71566206  0.68611900     0.05700
H179        H  0.29134792  0.69533604  0.79172559     0.05500
C180        C  0.42494569  0.78293162  0.94357295     0.79600
N181        N  0.44835907  0.75304262  0.94882581    -0.78700
C182        C  0.45157963  0.72563302  0.92344443     0.82100
N183        N  0.43186120  0.72876560  0.89278523    -0.78600
C184        C  0.40883249  0.75804571  0.88694380     0.82200
N185        N  0.40514410  0.78479138  0.91254847    -0.80300
C186        C  0.23452866  0.91391851  0.57216872     0.79600
N187        N  0.23860846  0.88491168  0.59461070    -0.78700
C188        C  0.26910676  0.86234673  0.59387542     0.82100
N189        N  0.29631586  0.86932162  0.57039280    -0.78600
C190        C  0.29328297  0.89812772  0.54747884     0.82200
N191        N  0.26215031  0.92049780  0.54855520    -0.80300
C192        C  0.09708787  0.57941928  0.78140945     0.79600
N193        N  0.08396248  0.56370937  0.75063760    -0.78700
C194        C  0.10242470  0.56697632  0.71915359     0.82100
N195        N  0.13374746  0.58635660  0.71871412    -0.78600
C196        C  0.14729282  0.60198054  0.74887828     0.82200
N197        N  0.12857353  0.59865483  0.77998579    -0.80300
C198        C  0.76644501  0.27528790  0.21516510     0.02500
C199        C  0.73914412  0.24868719  0.21365999    -0.13600
C200        C  0.73863744  0.22072135  0.23914925     0.00000
C201        C  0.76550249  0.21912865  0.26611174    -0.12100
C202        C  0.79237035  0.24592771  0.26826065     0.02500
C203        C  0.79267377  0.27415330  0.24293702    -0.11600
H204        H  0.71826704  0.24981969  0.19279201     0.08100
H205        H  0.76481551  0.19768956  0.28604970     0.05700
H206        H  0.81293692  0.29542179  0.24517280     0.05500
C207        C  0.94158503  0.21724335  0.42130457     0.79600
N208        N  0.91596874  0.21711736  0.39463000    -0.78700
C209        C  0.89265474  0.24643114  0.38905683     0.82100
N210        N  0.89539393  0.27661705  0.41041880    -0.78600
C211        C  0.92062071  0.27826303  0.43723711     0.82200
N212        N  0.94380610  0.24813276  0.44293624    -0.80300
C213        C  0.78979518  0.42073753  0.06069899     0.79600
N214        N  0.75912371  0.44361147  0.05718641    -0.78700
C215        C  0.72942220  0.44026088  0.07935773     0.82100
N216        N  0.73110002  0.41372410  0.10475673    -0.78600
C217        C  0.76111008  0.39084252  0.10874141     0.82200
N218        N  0.79022631  0.39466484  0.08657296    -0.80300
C219        C  0.59635317  0.05979557  0.21684566     0.79600
N220        N  0.62184415  0.08636928  0.21445254    -0.78700
C221        C  0.62926006  0.10906526  0.24254036     0.82100
N222        N  0.61125131  0.10493333  0.27374076    -0.78600
C223        C  0.58641701  0.07816210  0.27747419     0.82200
N224        N  0.57862853  0.05577214  0.24878261    -0.80300
O225        O  0.95144367  0.55749611  0.99033983    -0.80700
O226        O  0.05569702  0.55235889  0.00944422    -0.80800
O227        O  0.99160326  0.54225176  0.05955701    -0.80800
O228        O  0.03909972  0.50992215  0.91463555    -0.80700
O229        O  0.04698266  0.52921895  0.08054979    -0.80800
O230        O  0.99976045  0.55480734  0.93189114    -0.80700
O231        O  0.08479698  0.51441192  0.97161976    -0.80700
O232        O  0.92652944  0.52185735  0.02777126    -0.80800
C233        C  0.92276773  0.54856773  0.00651776     1.09000
C234        C  0.08434184  0.54363213  0.99126635     1.08800
C235        C  0.01509520  0.54398715  0.08552425     1.09000
C236        C  0.02521560  0.54221945  0.91128758     1.08900
O237        O  0.97352873  0.48434932  0.91373608    -0.80700
O238        O  0.01697876  0.46447492  0.06020068    -0.80800
O239        O  0.95632870  0.45040127  0.01052391    -0.80700
O240        O  0.05803548  0.44336842  0.99551126    -0.80700
O241        O  0.08293840  0.48209854  0.03097277    -0.80800
O242        O  0.92591649  0.48372577  0.97064685    -0.80700
O243        O  0.01146966  0.44125354  0.93596168    -0.80700
O244        O  0.96120778  0.47862880  0.07997228    -0.80800
Co245      Co  0.96494626  0.52005824  0.95381438     1.51500
Co246      Co  0.03366723  0.51056450  0.03357572     1.51700
Co247      Co  0.97608207  0.49455046  0.03332314     1.51600
Co248      Co  0.04589222  0.47748684  0.95651906     1.51500
O249        O  0.00535392  0.50092453  0.98743887    -1.42700
C250        C  0.98823109  0.45217301  0.91258095     1.08900
C251        C  0.99264463  0.46304276  0.08513685     1.09000
C252        C  0.92724941  0.45658812  0.99247330     1.08900
C253        C  0.08670972  0.45339639  0.01154581     1.08900
C254        C  0.22536887  0.08843916  0.43175536     0.79600
N255        N  0.22580109  0.11892880  0.41119884    -0.78700
C256        C  0.25492693  0.14139344  0.41157825     0.82100
N257        N  0.28435484  0.13285808  0.43275352    -0.78600
C258        C  0.28480248  0.10250903  0.45384294     0.82200
N259        N  0.25512414  0.08024581  0.45306268    -0.80300
C260        C  0.25981617  0.24416245  0.29549053     0.02500
C261        C  0.23238611  0.27179573  0.29026084    -0.13600
C262        C  0.22922451  0.29028786  0.25773739     0.00000
C263        C  0.25482476  0.28249448  0.23058773    -0.12100
C264        C  0.28284596  0.25553875  0.23559015     0.02500
C265        C  0.28510776  0.23606269  0.26777237    -0.11600
H266        H  0.21294474  0.27877883  0.31145307     0.08100
H267        H  0.25315410  0.29761247  0.20575279     0.05700
H268        H  0.30599133  0.21422256  0.27072113     0.05500
C269        C  0.06326577  0.43182659  0.21943877     0.79600
N270        N  0.09105610  0.40584802  0.22113706    -0.78700
C271        C  0.11347417  0.40330564  0.24999318     0.82100
N272        N  0.10729963  0.42665046  0.27784901    -0.78600
C273        C  0.07941405  0.45246758  0.27758442     0.82200
N274        N  0.05707654  0.45513370  0.24806791    -0.80300
C275        C  0.40760062  0.21242984  0.06458195     0.79600
N276        N  0.42849045  0.24262669  0.05932628    -0.78700
C277        C  0.42659749  0.27194991  0.08269076     0.82100
N278        N  0.40374223  0.27074989  0.11117815    -0.78600
C279        C  0.38275066  0.24121757  0.11672656     0.82200
N280        N  0.38479284  0.21222747  0.09339332    -0.80300
C281        C  0.78080241  0.24999945  0.75390108     0.02500
C282        C  0.77625862  0.22439542  0.72601622    -0.13600
C283        C  0.74949395  0.19777077  0.72858550     0.00000
C284        C  0.72730148  0.19638623  0.75879518    -0.12100
C285        C  0.73166496  0.22179526  0.78683199     0.02500
C286        C  0.75863044  0.24852805  0.78450826    -0.11600
H287        H  0.79378551  0.22485552  0.70258952     0.08100
H288        H  0.70662748  0.17549907  0.76046232     0.05700
H289        H  0.76169227  0.26869894  0.80593651     0.05500
C290        C  0.91556981  0.41286764  0.71977307     0.79600
N291        N  0.93413411  0.42104257  0.75070087    -0.78700
C292        C  0.93030082  0.39978607  0.78022364     0.82100
N293        N  0.90847072  0.37038544  0.77846516    -0.78600
C294        C  0.89009854  0.36162668  0.74823349     0.82200
N295        N  0.89356396  0.38311016  0.71902557    -0.80300
C296        C  0.58634458  0.26645124  0.93289215     0.79600
N297        N  0.58064143  0.23928541  0.95718643    -0.78700
C298        C  0.60003075  0.20621132  0.95452726     0.82100
N299        N  0.62442976  0.20097463  0.92720871    -0.78600
C300        C  0.62968201  0.22778321  0.90315397     0.82200
N301        N  0.61084281  0.26022419  0.90624420    -0.80300
C302        C  0.71654751  0.07091910  0.55990151     0.79600
N303        N  0.71492707  0.09248955  0.58987595    -0.78700
C304        C  0.74229011  0.09139451  0.61449088     0.82100
N305        N  0.77181582  0.06879229  0.60880427    -0.78600
C306        C  0.77507995  0.04749148  0.57905021     0.82200
N307        N  0.74707424  0.04817818  0.55434820    -0.80300
C308        C  0.74615522  0.77573393  0.28141200     0.02500
C309        C  0.71921142  0.77668416  0.25429726    -0.13600
C310        C  0.72006588  0.74989290  0.22672088     0.00000
C311        C  0.74826264  0.72243881  0.22627881    -0.12100
C312        C  0.77544406  0.72152581  0.25306106     0.02500
C313        C  0.77447789  0.74839818  0.28043980    -0.11600
H314        H  0.69799542  0.79847177  0.25446687     0.08100
H315        H  0.74905883  0.70171868  0.20503993     0.05700
H316        H  0.79540800  0.74770931  0.30127109     0.05500
C317        C  0.72281370  0.90806516  0.45161297     0.79600
N318        N  0.72192917  0.88413482  0.42316158    -0.78700
C319        C  0.74953484  0.88216151  0.39871074     0.82100
N320        N  0.77853477  0.90439093  0.40313963    -0.78600
C321        C  0.78040198  0.92838655  0.43122605     0.82200
N322        N  0.75227728  0.93034408  0.45531943    -0.80300
C323        C  0.93916662  0.57544103  0.21909261     0.79600
N324        N  0.91331936  0.60339774  0.22094603    -0.78700
C325        C  0.89011434  0.60715852  0.24900184     0.82100
N326        N  0.89283531  0.58272885  0.27595597    -0.78600
C327        C  0.91899152  0.55492003  0.27577829     0.82200
N328        N  0.94235883  0.55124149  0.24700376    -0.80300
C329        C  0.58366515  0.77959741  0.06428099     0.79600
N330        N  0.55905815  0.75171876  0.06117610    -0.78700
C331        C  0.56164119  0.72196902  0.08350764     0.82100
N332        N  0.58850629  0.72110031  0.10899606    -0.78600
C333        C  0.61335412  0.74799851  0.11168098     0.82200
N334        N  0.61093442  0.77675886  0.08914244    -0.80300
C335        C  0.22101598  0.74135941  0.28155226     0.02500
C336        C  0.22230367  0.71224739  0.25646744    -0.13600
C337        C  0.24618456  0.71309570  0.22703978     0.00000
C338        C  0.26959364  0.74296852  0.22359912    -0.12100
C339        C  0.26924847  0.77173320  0.24909239     0.02500
C340        C  0.24448414  0.77113307  0.27783768    -0.11600
H341        H  0.20448581  0.68910151  0.25980223     0.08100
H342        H  0.28812130  0.74394934  0.20095975     0.05700
H343        H  0.24378935  0.79346819  0.29746144     0.05500
C344        C  0.42067080  0.91808392  0.27437603     0.79600
N345        N  0.42545835  0.94107430  0.24610751    -0.78700
C346        C  0.40408142  0.93823121  0.21589055     0.82100
N347        N  0.37757822  0.91235466  0.21480795    -0.78600
C348        C  0.37278691  0.88933862  0.24265691     0.82200
N349        N  0.39452288  0.89228391  0.27195900    -0.80300
C350        C  0.08429620  0.71090134  0.44447111     0.79600
N351        N  0.11016638  0.70944275  0.41810145    -0.78700
C352        C  0.11460757  0.73831867  0.39608226     0.82100
N353        N  0.09265527  0.76876798  0.40032547    -0.78600
C354        C  0.06670619  0.77140200  0.42620125     0.82200
N355        N  0.06234270  0.74221424  0.44852328    -0.80300
C356        C  0.28048778  0.55385072  0.07986151     0.79600
N357        N  0.27998041  0.57825104  0.10787861    -0.78700
C358        C  0.25070368  0.60167836  0.11385952     0.82100
N359        N  0.22128771  0.60036071  0.09147485    -0.78600
C360        C  0.22031823  0.57617546  0.06349212     0.82200
N361        N  0.25033428  0.55298426  0.05765760    -0.80300
O362        O  0.98987114  0.94517257  0.54769809    -0.80700
O363        O  0.00612741  0.05096278  0.55938776    -0.80800
O364        O  0.09040736  0.96578259  0.51695318    -0.80800
O365        O  0.93977999  0.01091537  0.54119264    -0.80700
O366        O  0.06914090  0.00327542  0.56001265    -0.80800
O367        O  0.92290493  0.95759044  0.52388747    -0.80700
O368        O  0.96740826  0.07577713  0.52239062    -0.80700
O369        O  0.03390056  0.91752863  0.51677367    -0.80800
C370        C  0.01099657  0.91745060  0.54287086     1.09000
C371        C  0.98799108  0.07941795  0.54967361     1.08800
C372        C  0.09294395  0.97967310  0.54808016     1.09000
C373        C  0.91598022  0.98590059  0.54172369     1.08900
O374        O  0.94134853  0.98411075  0.46023794    -0.80700
O375        O  0.08887519  0.03162564  0.49294480    -0.80800
O376        O  0.01311772  0.94441200  0.44549135    -0.80700
O377        O  0.98854314  0.04865827  0.45404655    -0.80700
O378        O  0.02815061  0.07705538  0.48929329    -0.80800
O379        O  0.97544427  0.91494210  0.47708680    -0.80700
O380        O  0.91623574  0.03759932  0.47735068    -0.80700
O381        O  0.06971692  0.99507170  0.44936473    -0.80800
Co382      Co  0.97062087  0.96223805  0.50211739     1.51500
Co383      Co  0.04575149  0.03829972  0.52528960     1.51700
Co384      Co  0.04914284  0.95870960  0.48290912     1.51600
Co385      Co  0.96533843  0.02657019  0.49580729     1.51500
O386        O  0.01312684  0.99823610  0.50506433    -1.42700
C387        C  0.91310458  0.00661578  0.46117102     1.08900
C388        C  0.09185282  0.01868242  0.46144871     1.09000
C389        C  0.99742564  0.91448106  0.45153010     1.08900
C390        C  0.00746348  0.07673753  0.46136072     1.08900
C391        C  0.06150285  0.83877409  0.41547352    -0.26900
C392        C  0.04565973  0.80719863  0.42981159    -0.15000
C393        C  0.01071768  0.81096801  0.44600703     0.35600
C394        C  0.99411184  0.84633131  0.45017248    -0.26400
C395        C  0.01145639  0.87815184  0.43811551    -0.15600
C396        C  0.04505863  0.87384326  0.41942545     0.36700
N397        N  0.06418857  0.90440368  0.40535826    -0.89800
H398        H  0.08797643  0.83668199  0.40211960     0.17800
H399        H  0.96798277  0.84907921  0.46411591     0.17800
N400        N  0.99199511  0.77912689  0.45778105    -0.88900
H401        H  0.07301367  0.92111876  0.42650565     0.35200
H402        H  0.04622641  0.91949423  0.38865152     0.40300
H403        H  0.98558039  0.76354248  0.43497311     0.39900
H404        H  0.96685162  0.78688067  0.46982688     0.34800
C405        C  0.28097701  0.66705622  0.18889876    -0.26900
C406        C  0.24691778  0.68299237  0.19967874    -0.15000
C407        C  0.21432719  0.67118743  0.18309193     0.35600
C408        C  0.21633951  0.64415583  0.15594784    -0.26400
C409        C  0.25042750  0.62875280  0.14426305    -0.15600
C410        C  0.28322640  0.64033483  0.16123444     0.36700
N411        N  0.31875568  0.62580105  0.14994597    -0.89800
H412        H  0.30606737  0.67600390  0.20178806     0.17800
H413        H  0.19085193  0.63558916  0.14373699     0.17800
N414        N  0.17916008  0.68750556  0.19278542    -0.88900
H415        H  0.33978251  0.63645794  0.16589138     0.35200
H416        H  0.32321856  0.63510555  0.12399974     0.40300
H417        H  0.16231494  0.66645555  0.20123295     0.39900
H418        H  0.16717301  0.69919389  0.16989029     0.34800
C419        C  0.20210135  0.71967404  0.34136161    -0.26900
C420        C  0.19414953  0.74088898  0.31102748    -0.15000
C421        C  0.15991506  0.76019831  0.30838160     0.35600
C422        C  0.13450319  0.75840829  0.33621469    -0.26400
C423        C  0.14221161  0.73727497  0.36688270    -0.15600
C424        C  0.17659010  0.71763664  0.36928891     0.36700
N425        N  0.18692656  0.69633878  0.39997404    -0.89800
H426        H  0.22836462  0.70462250  0.34333521     0.17800
H427        H  0.10834286  0.77354540  0.33363316     0.17800
N428        N  0.15013335  0.78140016  0.27745613    -0.88900
H429        H  0.16890125  0.67456348  0.40223218     0.35200
H430        H  0.18484584  0.71331752  0.42278016     0.40300
H431        H  0.15134960  0.76385974  0.25498531     0.39900
H432        H  0.16959306  0.80176910  0.27439559     0.34800
C433        C  0.28319282  0.83741810  0.23702653    -0.26900
C434        C  0.29580313  0.80168712  0.24614837    -0.15000
C435        C  0.33381901  0.79488903  0.25261776     0.35600
C436        C  0.35827530  0.82376722  0.25026082    -0.26400
C437        C  0.34586884  0.85954327  0.24112310    -0.15600
C438        C  0.30785334  0.86634016  0.23427238     0.36700
N439        N  0.29337729  0.90249103  0.22598473    -0.89800
H440        H  0.25401985  0.84285673  0.23217964     0.17800
H441        H  0.38728522  0.81828334  0.25597777     0.17800
N442        N  0.34816126  0.75917333  0.26272931    -0.88900
H443        H  0.30552790  0.91095673  0.20227034     0.35200
H444        H  0.30066005  0.92063768  0.24661562     0.40300
H445        H  0.34291007  0.74029407  0.24209471     0.39900
H446        H  0.33435765  0.75108175  0.28570824     0.34800
C447        C  0.81085771  0.98694620  0.45089261    -0.26900
C448        C  0.81351868  0.95126868  0.43541041    -0.15000
C449        C  0.84836132  0.93735883  0.42397863     0.35600
C450        C  0.87947567  0.95854067  0.42866663    -0.26400
C451        C  0.87768411  0.99294896  0.44655468    -0.15600
C452        C  0.84265823  0.00801473  0.45659650     0.36700
N453        N  0.83960334  0.04358004  0.47401848    -0.89800
H454        H  0.78409699  0.99804165  0.45927697     0.17800
H455        H  0.90586350  0.94630580  0.42049081     0.17800
N456        N  0.85295961  0.90056742  0.40967454    -0.88900
H457        H  0.81210878  0.05010733  0.48051838     0.35200
H458        H  0.84758566  0.06320467  0.45554748     0.40300
H459        H  0.87131233  0.88579042  0.42623610     0.39900
H460        H  0.86498272  0.90213685  0.38437131     0.34800
C461        C  0.62950927  0.74231649  0.17594800    -0.26900
C462        C  0.64103826  0.74759543  0.14066329    -0.15000
C463        C  0.67844474  0.75387330  0.13380037     0.35600
C464        C  0.70371808  0.75497832  0.16232874    -0.26400
C465        C  0.69209313  0.75044896  0.19775855    -0.15600
C466        C  0.65451011  0.74402126  0.20453044     0.36700
N467        N  0.64114943  0.73820081  0.23996818    -0.89800
H468        H  0.60071529  0.73753931  0.18140325     0.17800
H469        H  0.73258194  0.75932399  0.15681146     0.17800
N470        N  0.69096667  0.75816676  0.09783169    -0.88900
H471        H  0.64505118  0.76203049  0.25537146     0.35200
H472        H  0.65650720  0.71632209  0.25124643     0.40300
H473        H  0.71119914  0.73758625  0.09255815     0.39900
H474        H  0.70330366  0.78377940  0.09620720     0.34800
C475        C  0.84141109  0.70160441  0.24694244    -0.26900
C476        C  0.80469792  0.69216134  0.25249898    -0.15000
C477        C  0.79610325  0.65482933  0.25695807     0.35600
C478        C  0.82459465  0.62755904  0.25591382    -0.26400
C479        C  0.86128050  0.63689037  0.24979345    -0.15600
C480        C  0.86967039  0.67437264  0.24509205     0.36700
N481        N  0.90666333  0.68566701  0.23932419    -0.89800
H482        H  0.84803718  0.73030348  0.24351043     0.17800
H483        H  0.81813816  0.59883927  0.25948003     0.17800
N484        N  0.75851666  0.64487885  0.26262941    -0.88900
H485        H  0.91627959  0.67386241  0.21531496     0.35200
H486        H  0.92329442  0.67588130  0.26031954     0.40300
H487        H  0.74996947  0.65664335  0.28705375     0.39900
H488        H  0.75683076  0.61627043  0.26515576     0.34800
C489        C  0.72238650  0.82750164  0.36774150    -0.26900
C490        C  0.74807649  0.85586578  0.36764227    -0.15000
C491        C  0.77210730  0.85817357  0.33795017     0.35600
C492        C  0.77061782  0.83198675  0.31000126    -0.26400
C493        C  0.74536841  0.80364795  0.31060674    -0.15600
C494        C  0.72088682  0.80151093  0.33968049     0.36700
N495        N  0.69488581  0.77268017  0.34174408    -0.89800
H496        H  0.70366679  0.82499140  0.39003806     0.17800
H497        H  0.78940733  0.83376667  0.28763875     0.17800
N498        N  0.79792100  0.88714283  0.33564189    -0.88900
H499        H  0.70941719  0.74727354  0.34070388     0.35200
H500        H  0.67742765  0.77432962  0.31943382     0.40300
H501        H  0.79224207  0.90185360  0.31226371     0.39900
H502        H  0.82441770  0.87503766  0.33337268     0.34800
C503        C  0.81270539  0.99479610  0.55182358    -0.26900
C504        C  0.81062867  0.02672948  0.57354034    -0.15000
C505        C  0.84338549  0.03916678  0.59018621     0.35600
C506        C  0.87707219  0.02136822  0.58314798    -0.26400
C507        C  0.87977399  0.99236359  0.55861500    -0.15600
C508        C  0.84710033  0.97692019  0.54458099     0.36700
N509        N  0.84901732  0.94466401  0.52167639    -0.89800
H510        H  0.78777762  0.98440206  0.53985728     0.17800
H511        H  0.90187589  0.03271789  0.59463703     0.17800
N512        N  0.84352590  0.07170825  0.61238222    -0.88900
H513        H  0.82254087  0.93742332  0.51343933     0.35200
H514        H  0.85942244  0.92271013  0.53696958     0.40300
H515        H  0.86048404  0.09079974  0.60046131     0.39900
H516        H  0.85537938  0.06449478  0.63698787     0.34800
C517        C  0.76690498  0.13747642  0.70251680    -0.26900
C518        C  0.74571552  0.17017665  0.70026915    -0.15000
C519        C  0.72124618  0.17596610  0.67143058     0.35600
C520        C  0.71958900  0.14936928  0.64421408    -0.26400
C521        C  0.74184187  0.11688737  0.64553204    -0.15600
C522        C  0.76502748  0.11056794  0.67558960     0.36700
N523        N  0.78640926  0.07684854  0.67927223    -0.89800
H524        H  0.78512163  0.13290255  0.72525412     0.17800
H525        H  0.70150128  0.15466848  0.62156223     0.17800
N526        N  0.69812360  0.20869755  0.66914860    -0.88900
H527        H  0.77802326  0.06402937  0.70262984     0.35200
H528        H  0.81403776  0.08360174  0.68271786     0.40300
H529        H  0.71496923  0.23159164  0.66937219     0.39900
H530        H  0.68136572  0.21030141  0.69185397     0.34800
C531        C  0.66812541  0.22403022  0.81003150    -0.26900
C532        C  0.70610888  0.22158302  0.81718751    -0.15000
C533        C  0.71881472  0.21859678  0.85271785     0.35600
C534        C  0.69321195  0.21869399  0.88070815    -0.26400
C535        C  0.65532859  0.22235380  0.87346236    -0.15600
C536        C  0.64266667  0.22481147  0.83778060     0.36700
N537        N  0.60415097  0.22791856  0.82899630    -0.89800
H538        H  0.65823071  0.22618902  0.78267809     0.17800
H539        H  0.70294081  0.21715054  0.90814776     0.17800
N540        N  0.75753734  0.21527203  0.86034287    -0.88900
H541        H  0.59309376  0.25250890  0.83998846     0.35200
H542        H  0.59087812  0.20573526  0.84034698     0.40300
H543        H  0.76249425  0.19068504  0.87417250     0.39900
H544        H  0.76443276  0.23722091  0.87728585     0.34800
C545        C  0.83705651  0.32893343  0.72150842    -0.26900
C546        C  0.86411943  0.33092948  0.74846405    -0.15000
C547        C  0.86416806  0.30498471  0.77655119     0.35600
C548        C  0.83663070  0.27893753  0.77778580    -0.26400
C549        C  0.80928846  0.27775537  0.75135554    -0.15600
C550        C  0.80964377  0.30266304  0.72282716     0.36700
N551        N  0.78146032  0.30213734  0.69582965    -0.89800
H552        H  0.83633664  0.34851209  0.69983386     0.17800
H553        H  0.83672406  0.25933245  0.79946191     0.17800
N554        N  0.89206923  0.30467417  0.80387458    -0.88900
H555        H  0.79426251  0.29799793  0.67099651     0.35200
H556        H  0.76792541  0.32806908  0.69572862     0.40300
H557        H  0.90546359  0.27865985  0.80359264     0.39900
H558        H  0.87908822  0.30842932  0.82866739     0.34800
C559        C  0.36846863  0.26079285  0.17914510    -0.26900
C560        C  0.35801929  0.24134835  0.14807668    -0.15000
C561        C  0.32335168  0.22472397  0.14691558     0.35600
C562        C  0.29961700  0.22845310  0.17640796    -0.26400
C563        C  0.30997623  0.24848546  0.20698329    -0.15600
C564        C  0.34481612  0.26457617  0.20843291     0.36700
N565        N  0.35624567  0.28596339  0.23882833    -0.89800
H566        H  0.39498807  0.27374842  0.18048406     0.17800
H567        H  0.27257120  0.21656987  0.17506023     0.17800
N568        N  0.31136326  0.20564303  0.11533086    -0.88900
H569        H  0.35610603  0.26918110  0.26136493     0.35200
H570        H  0.33706142  0.30781556  0.24276667     0.40300
H571        H  0.28696349  0.21869342  0.10631549     0.39900
H572        H  0.30534140  0.17865888  0.12236300     0.34800
C573        C  0.14489143  0.34600455  0.22583135    -0.26900
C574        C  0.14402002  0.37509494  0.25121291    -0.15000
C575        C  0.17201497  0.37621485  0.27765490     0.35600
C576        C  0.19970961  0.34857198  0.27828586    -0.26400
C577        C  0.20010207  0.31923115  0.25352304    -0.15600
C578        C  0.17206488  0.31761992  0.22703301     0.36700
N579        N  0.16940752  0.28741116  0.20178955    -0.89800
H580        H  0.12355497  0.34445562  0.20549586     0.17800
H581        H  0.22106451  0.34987452  0.29866161     0.17800
N582        N  0.17278146  0.40531023  0.30399995    -0.88900
H583        H  0.14404164  0.27517531  0.20594402     0.35200
H584        H  0.18943356  0.26672191  0.20631676     0.40300
H585        H  0.19793400  0.41846013  0.30186270     0.39900
H586        H  0.17168598  0.39347943  0.32931642     0.34800
C587        C  0.15798831  0.01135389  0.44739241    -0.26900
C588        C  0.12412210  0.03023052  0.44126100    -0.15000
C589        C  0.12394489  0.06600347  0.42723380     0.35600
C590        C  0.15754748  0.08344621  0.42231516    -0.26400
C591        C  0.19151517  0.06608616  0.43180483    -0.15600
C592        C  0.19179196  0.02880138  0.44253413     0.36700
N593        N  0.22610090  0.00917001  0.44954530    -0.89800
H594        H  0.15797080  0.98398104  0.45876720     0.17800
H595        H  0.15682966  0.11173797  0.41330321     0.17800
N596        N  0.08942609  0.08558093  0.42094101    -0.88900
H597        H  0.24063078  0.00707177  0.42543404     0.35200
H598        H  0.22131443  0.98216536  0.45737763     0.40300
H599        H  0.07557209  0.07143517  0.40060560     0.39900
H600        H  0.09385660  0.11207278  0.41146303     0.34800
C601        C  0.29004350  0.18580364  0.37526071    -0.26900
C602        C  0.25590584  0.17254438  0.38630631    -0.15000
C603        C  0.22321014  0.18708459  0.37058202     0.35600
C604        C  0.22529415  0.21070816  0.34153454    -0.26400
C605        C  0.25943735  0.22188717  0.32859715    -0.15600
C606        C  0.29208533  0.21089611  0.34694060     0.36700
N607        N  0.32705263  0.22505114  0.33672934    -0.89800
H608        H  0.31531058  0.17574310  0.38791180     0.17800
H609        H  0.19980869  0.21940185  0.32840936     0.17800
N610        N  0.18768003  0.17787147  0.38384576    -0.88900
H611        H  0.34822906  0.21429918  0.35295363     0.35200
H612        H  0.32582121  0.25363319  0.34141139     0.40300
H613        H  0.17286916  0.16573195  0.36291243     0.39900
H614        H  0.17364110  0.20235416  0.39151990     0.34800
C615        C  0.94347727  0.41543810  0.88006845    -0.26900
C616        C  0.97889316  0.42946649  0.88131592    -0.15000
C617        C  0.99944014  0.43165804  0.84935708     0.35600
C618        C  0.98348214  0.42147551  0.81662127    -0.26400
C619        C  0.94722856  0.40923371  0.81511737    -0.15600
C620        C  0.92729106  0.40534202  0.84736449     0.36700
N621        N  0.88993269  0.39306625  0.84669519    -0.89800
H622        H  0.92736943  0.41494569  0.90444390     0.17800
H623        H  0.99916629  0.42392107  0.79218241     0.17800
N624        N  0.03584086  0.44586190  0.84917513    -0.88900
H625        H  0.87944087  0.39147265  0.87262250     0.35200
H626        H  0.87372047  0.41310319  0.83349497     0.40300
H627        H  0.05221443  0.43070579  0.86723705     0.39900
H628        H  0.03428008  0.47338698  0.85775641     0.34800
C629        C  0.96866538  0.57950809  0.12125033    -0.26900
C630        C  0.00216254  0.55906993  0.12088651    -0.15000
C631        C  0.01725990  0.54701852  0.15397334     0.35600
C632        C  0.99685659  0.55308036  0.18598280    -0.26400
C633        C  0.96189777  0.57129168  0.18569217    -0.15600
C634        C  0.94838363  0.58531382  0.15269423     0.36700
N635        N  0.91287931  0.60377792  0.15021862    -0.89800
H636        H  0.95662529  0.58919820  0.09632694     0.17800
H637        H  0.00787915  0.54274275  0.21103557     0.17800
N638        N  0.05215703  0.52704253  0.15482459    -0.88900
H639        H  0.89660340  0.58895901  0.13221477     0.35200
H640        H  0.91647533  0.63003370  0.13979286     0.40300
H641        H  0.07234024  0.54515273  0.14701728     0.39900
H642        H  0.05880014  0.51922461  0.18102927     0.34800
C643        C  0.03932767  0.42922335  0.12063918    -0.26900
C644        C  0.00433625  0.44682379  0.11974822    -0.15000
C645        C  0.98645065  0.45556559  0.15242399     0.35600
C646        C  0.00549676  0.44992605  0.18507186    -0.26400
C647        C  0.04200883  0.43534841  0.18546028    -0.15600
C648        C  0.05856679  0.42433397  0.15261624     0.36700
N649        N  0.09602567  0.41036965  0.15102158    -0.89800
H650        H  0.05350212  0.42172871  0.09596175     0.17800
H651        H  0.99202282  0.45772013  0.20999481     0.17800
N652        N  0.94956863  0.47100380  0.15259436    -0.88900
H653        H  0.11107556  0.42794043  0.13509017     0.35200
H654        H  0.09621463  0.38428864  0.13862551     0.40300
H655        H  0.94964561  0.49639823  0.16610883     0.39900
H656        H  0.93310855  0.45344272  0.16714872     0.34800
C657        C  0.11956934  0.58413597  0.03172245    -0.26900
C658        C  0.11996400  0.56110496  0.00123706    -0.15000
C659        C  0.15497806  0.54910460  0.98746370     0.35600
C660        C  0.18731719  0.55556837  0.00738651    -0.26400
C661        C  0.18610407  0.57448331  0.04060300    -0.15600
C662        C  0.15145974  0.59054107  0.05159321     0.36700
N663        N  0.14662386  0.61184726  0.08388759    -0.89800
H664        H  0.09357652  0.59498548  0.04238350     0.17800
H665        H  0.21347075  0.54471076  0.99715662     0.17800
N666        N  0.15895958  0.53068168  0.95343358    -0.88900
H667        H  0.16232545  0.63547523  0.08256831     0.35200
H668        H  0.15443252  0.59562864  0.10573280     0.40300
H669        H  0.14584599  0.54699049  0.93397217     0.39900
H670        H  0.14677907  0.50510614  0.95397947     0.34800
C671        C  0.85819858  0.45061952  0.98895398    -0.26900
C672        C  0.89228603  0.43905792  0.00404468    -0.15000
C673        C  0.89163894  0.41667090  0.03494131     0.35600
C674        C  0.85789759  0.41060499  0.05206833    -0.26400
C675        C  0.82409060  0.42507793  0.03882572    -0.15600
C676        C  0.82437497  0.44315222  0.00563035     0.36700
N677        N  0.79045069  0.45332791  0.98827936    -0.89800
H678        H  0.85769708  0.46683699  0.96479025     0.17800
H679        H  0.85837762  0.39526432  0.07674927     0.17800
N680        N  0.92533873  0.40143340  0.04998330    -0.88900
H681        H  0.79006437  0.43977744  0.96337075     0.35200
H682        H  0.79032003  0.48162448  0.98366638     0.40300
H683        H  0.93646411  0.38240165  0.03138390     0.39900
H684        H  0.92016866  0.38667498  0.07321206     0.34800
C685        C  0.95470734  0.14988406  0.40853276    -0.26900
C686        C  0.96473049  0.18246872  0.42680468    -0.15000
C687        C  0.99568018  0.18027406  0.44989019     0.35600
C688        C  0.01199937  0.14546486  0.45812172    -0.26400
C689        C  0.99870544  0.11252098  0.44314560    -0.15600
C690        C  0.97147878  0.11536413  0.41616526     0.36700
N691        N  0.95964961  0.08315436  0.39723305    -0.89800
H692        H  0.93249987  0.15059262  0.38903094     0.17800
H693        H  0.03394775  0.14406317  0.47789113     0.17800
N694        N  0.01051076  0.21315920  0.46501479    -0.88900
H695        H  0.96393175  0.08707580  0.36991565     0.35200
H696        H  0.93128667  0.08084087  0.40132104     0.40300
H697        H  0.02086109  0.22815295  0.44371018     0.39900
H698        H  0.03303410  0.20676277  0.48157399     0.34800
C699        C  0.65013061  0.17212992  0.25751781    -0.26900
C700        C  0.65669794  0.13815328  0.23963184    -0.15000
C701        C  0.69011629  0.13197183  0.22094678     0.35600
C702        C  0.71621632  0.15968481  0.22037610    -0.26400
C703        C  0.70957254  0.19337746  0.23834168    -0.15600
C704        C  0.67622934  0.19969620  0.25706188     0.36700
N705        N  0.66857539  0.23360370  0.27623564    -0.89800
H706        H  0.62465781  0.17720593  0.27213681     0.17800
H707        H  0.74213226  0.15458612  0.20650378     0.17800
N708        N  0.69846277  0.09704522  0.20395744    -0.88900
H709        H  0.66961342  0.25535991  0.25819807     0.35200
H710        H  0.68926663  0.23702639  0.29547389     0.40300
H711        H  0.72256980  0.08590544  0.21557143     0.39900
H712        H  0.70389185  0.10177163  0.17696313     0.34800
C713        C  0.79284521  0.33675330  0.13836420    -0.26900
C714        C  0.76226134  0.36178300  0.13684096    -0.15000
C715        C  0.73346749  0.35811863  0.16201754     0.35600
C716        C  0.73573074  0.32993624  0.18739265    -0.26400
C717        C  0.76619394  0.30521753  0.18863208    -0.15600
C718        C  0.79503387  0.30868916  0.16377380     0.36700
N719        N  0.82622365  0.28333078  0.16286784    -0.89800
H720        H  0.81523180  0.33858296  0.11942386     0.17800
H721        H  0.71343720  0.32734945  0.20636007     0.17800
N722        N  0.70175784  0.38276945  0.16220018    -0.88900
H723        H  0.81664264  0.25654983  0.15984930     0.35200
H724        H  0.84043701  0.28517596  0.18717673     0.40300
H725        H  0.70004532  0.39569134  0.18737422     0.39900
H726        H  0.67826302  0.36711511  0.15858501     0.34800
C727        C  0.86957303  0.21837687  0.33210245    -0.26900
C728        C  0.86569540  0.24600948  0.35887143    -0.15000
C729        C  0.83669072  0.27307961  0.35574209     0.35600
C730        C  0.81402908  0.27308338  0.32519939    -0.26400
C731        C  0.81841286  0.24579885  0.29860838    -0.15600
C732        C  0.84595564  0.21781449  0.30219946     0.36700
N733        N  0.84979707  0.18902992  0.27545147    -0.89800
H734        H  0.89129704  0.19725026  0.33422330     0.17800
H735        H  0.79200436  0.29386750  0.32254709     0.17800
N736        N  0.82963851  0.29995958  0.38376267    -0.88900
H737        H  0.87116292  0.17035426  0.28221129     0.35200
H738        H  0.85744677  0.20131732  0.25150066     0.40300
H739        H  0.82098648  0.28578277  0.40619451     0.39900
H740        H  0.80778997  0.31815911  0.37678405     0.34800
C741        C  0.07568276  0.57261121  0.88143703    -0.26900
C742        C  0.03868765  0.56285998  0.88062417    -0.15000
C743        C  0.02006355  0.56106126  0.84750203     0.35600
C744        C  0.03930578  0.56793886  0.81565834    -0.26400
C745        C  0.07712264  0.57591254  0.81614895    -0.15600
C746        C  0.09515682  0.57884407  0.84998038     0.36700
N747        N  0.13376601  0.58546016  0.85358209    -0.89800
H748        H  0.09040801  0.57263375  0.90675045     0.17800
H749        H  0.02495678  0.56572449  0.79025485     0.17800
N750        N  0.98253957  0.54940489  0.84617852    -0.88900
H751        H  0.13896533  0.61182254  0.84423683     0.35200
H752        H  0.14877159  0.56545282  0.83876759     0.40300
H753        H  0.96623541  0.56950362  0.85959013     0.39900
H754        H  0.97299617  0.54843954  0.81975453     0.34800
C755        C  0.16718514  0.91832870  0.58522495    -0.26900
C756        C  0.19873271  0.93576392  0.57258546    -0.15000
C757        C  0.19434880  0.97251645  0.56020144     0.35600
C758        C  0.15887273  0.98915094  0.55790348    -0.26400
C759        C  0.12733019  0.96994817  0.56720344    -0.15600
C760        C  0.13187570  0.93465125  0.58212449     0.36700
N761        N  0.10079809  0.91358357  0.59187074    -0.89800
H762        H  0.16931284  0.89044870  0.59513704     0.17800
H763        H  0.15566395  0.01594295  0.54545086     0.17800
N764        N  0.22487979  0.99336597  0.54876104    -0.88900
H765        H  0.08500834  0.90870657  0.56897510     0.35200
H766        H  0.08472485  0.92933504  0.60999543     0.40300
H767        H  0.23603719  0.98069994  0.52587712     0.39900
H768        H  0.24476483  0.99345357  0.56912400     0.34800
C769        C  0.23648127  0.64530641  0.71892566    -0.08700
C770        C  0.23918231  0.67413335  0.74406139    -0.15000
C771        C  0.21320828  0.67768413  0.77198669     0.35600
C772        C  0.18445051  0.65279466  0.77361647    -0.26400
C773        C  0.18049605  0.62487568  0.74748612    -0.15600
C774        C  0.20761337  0.62071326  0.72022447     0.36700
N775        N  0.20709478  0.59177839  0.69368872    -0.89800
H776        H  0.25664142  0.64234674  0.69764004     0.17800
H777        H  0.16410042  0.65635482  0.79463086     0.17800
N778        N  0.21531387  0.70739529  0.79779798    -0.88900
H779        H  0.18425080  0.59595505  0.67690548     0.35200
H780        H  0.20547196  0.56641540  0.70650480     0.40300
H781        H  0.19423583  0.70597810  0.81670098     0.39900
H782        H  0.21080109  0.73218725  0.78420973     0.34800
C783        C  0.24987731  0.78844424  0.66250533    -0.26900
C784        C  0.28576258  0.77807540  0.67353081    -0.15000
C785        C  0.31602074  0.79327503  0.65611176     0.35600
C786        C  0.30987200  0.81994506  0.62963729    -0.26400
C787        C  0.27387409  0.83188707  0.61996192    -0.15600
C788        C  0.24356598  0.81483541  0.63614064     0.36700
N789        N  0.20597698  0.82341361  0.62661040    -0.89800
H790        H  0.22621703  0.77700971  0.67547889     0.17800
H791        H  0.33356038  0.83195339  0.61724814     0.17800
N792        N  0.35302444  0.78151067  0.66496912    -0.88900
H793        H  0.20296771  0.82088655  0.59887462     0.35200
H794        H  0.19921947  0.85038953  0.63508430     0.40300
H795        H  0.36733738  0.80472257  0.67332801     0.39900
H796        H  0.36562174  0.77094220  0.64170305     0.34800
C797        C  0.37703532  0.74458565  0.79087317    -0.26900
C798        C  0.33891736  0.75052675  0.79456530    -0.15000
C799        C  0.32418792  0.76267431  0.82770626     0.35600
C800        C  0.34797741  0.76712025  0.85717326    -0.26400
C801        C  0.38594004  0.75874542  0.85414896    -0.15600
C802        C  0.40062115  0.74801046  0.82031437     0.36700
N803        N  0.43927871  0.74045014  0.81492079    -0.89800
H804        H  0.38833542  0.73550194  0.76528799     0.17800
H805        H  0.33662647  0.77537977  0.88296486     0.17800
N806        N  0.28507305  0.76947131  0.83141077    -0.88900
H807        H  0.44744431  0.71693615  0.82915966     0.35200
H808        H  0.45386738  0.76301411  0.82443112     0.40300
H809        H  0.27754634  0.79152452  0.81478916     0.39900
H810        H  0.27864580  0.77794870  0.85753946     0.34800
C811        C  0.58463643  0.88121989  0.03759679    -0.26900
C812        C  0.56277077  0.88146901  0.00652329    -0.15000
C813        C  0.55307988  0.84711605  0.99131705     0.35600
C814        C  0.56116372  0.81404124  0.00980236    -0.26400
C815        C  0.57968200  0.81432706  0.04300700    -0.15600
C816        C  0.59293712  0.84868700  0.05598946     0.36700
N817        N  0.61295809  0.85243759  0.08895469    -0.89800
H818        H  0.59316896  0.90700508  0.04960113     0.17800
H819        H  0.55197304  0.78816945  0.99853558     0.17800
N820        N  0.53446043  0.84565144  0.95747196    -0.88900
H821        H  0.63820445  0.83781700  0.08699280     0.35200
H822        H  0.59723029  0.84254054  0.10995220     0.40300
H823        H  0.50948259  0.83260009  0.96086205     0.39900
H824        H  0.55063929  0.82916543  0.94009543     0.34800
C825        C  0.40603639  0.87885408  0.98481137    -0.26900
C826        C  0.43586210  0.88120984  0.00867015    -0.15000
C827        C  0.45505080  0.84810817  0.01828011     0.35600
C828        C  0.44896600  0.81535678  0.99847407    -0.26400
C829        C  0.42351882  0.81477029  0.96982561    -0.15600
C830        C  0.39940248  0.84628135  0.96561464     0.36700
N831        N  0.36841486  0.84686185  0.94164370    -0.89800
H832        H  0.38938876  0.90340141  0.97873712     0.17800
H833        H  0.46604034  0.79097195  0.00400749     0.17800
N834        N  0.48208814  0.84822070  0.04655198    -0.88900
H835        H  0.35231298  0.82411404  0.94666250     0.35200
H836        H  0.37763941  0.84620621  0.91518280     0.40300
H837        H  0.49354452  0.82164519  0.05022745     0.39900
H838        H  0.46828376  0.85538420  0.07026526     0.34800
C839        C  0.58625322  0.02515384  0.11972128    -0.26900
C840        C  0.56125658  0.99673785  0.12310631    -0.15000
C841        C  0.55165960  0.98559816  0.15789055     0.35600
C842        C  0.56449706  0.00569563  0.18808265    -0.26400
C843        C  0.58710267  0.03648294  0.18443092    -0.15600
C844        C  0.59915412  0.04493959  0.14928874     0.36700
N845        N  0.62340766  0.07427906  0.14188204    -0.89800
H846        H  0.59446037  0.03367220  0.09327948     0.17800
H847        H  0.55579100  0.99786730  0.21453467     0.17800
N848        N  0.52799769  0.95496465  0.16256949    -0.88900
H849        H  0.64853529  0.06914453  0.15482744     0.35200
H850        H  0.61122354  0.09947869  0.15042885     0.40300
H851        H  0.50224329  0.96194651  0.15153246     0.39900
H852        H  0.52359231  0.95044277  0.18978142     0.34800
C853        C  0.40969827  0.97202597  0.11898640    -0.26900
C854        C  0.43417320  0.00112075  0.12218777    -0.15000
C855        C  0.44427217  0.01299532  0.15705420     0.35600
C856        C  0.43290303  0.99316531  0.18714187    -0.26400
C857        C  0.41107704  0.96166166  0.18362624    -0.15600
C858        C  0.39821614  0.95230807  0.14865139     0.36700
N859        N  0.37504676  0.92176277  0.14151175    -0.89800
H860        H  0.40110726  0.96273652  0.09260248     0.17800
H861        H  0.44244796  0.00176992  0.21339049     0.17800
N862        N  0.46768857  0.04363785  0.16272755    -0.88900
H863        H  0.34998512  0.92617275  0.15492495     0.35200
H864        H  0.38837920  0.89741891  0.14997961     0.40300
H865        H  0.45485710  0.06699919  0.15139394     0.39900
H866        H  0.49269785  0.03821633  0.14962619     0.34800
C867        C  0.40603811  0.11271359  0.03018328    -0.26900
C868        C  0.43261738  0.11284549  0.00290709    -0.15000
C869        C  0.44418892  0.14772402  0.99082082     0.35600
C870        C  0.43348948  0.18010221  0.00974026    -0.26400
C871        C  0.41148099  0.17898856  0.04061440    -0.15600
C872        C  0.39578865  0.14495692  0.04931284     0.36700
N873        N  0.37091016  0.14219220  0.07877263    -0.89800
H874        H  0.39534068  0.08683658  0.03914280     0.17800
H875        H  0.44447431  0.20605442  0.00135637     0.17800
N876        N  0.46833844  0.15147219  0.96090935    -0.88900
H877        H  0.38246075  0.12343322  0.09701121     0.35200
H878        H  0.34624819  0.13153418  0.06908199     0.40300
H879        H  0.49432351  0.13982575  0.96680151     0.39900
H880        H  0.45713571  0.13809253  0.93864716     0.34800
C881        C  0.59831690  0.10861662  0.99115283    -0.26900
C882        C  0.56605844  0.11038980  0.01185279    -0.15000
C883        C  0.55073237  0.14588971  0.02085923     0.35600
C884        C  0.56347828  0.17730739  0.00359892    -0.26400
C885        C  0.59252928  0.17456379  0.97870549    -0.15600
C886        C  0.61223530  0.14013707  0.97523182     0.36700
N887        N  0.64563468  0.13673648  0.95460609    -0.89800
H888        H  0.61188897  0.08202927  0.98575227     0.17800
H889        H  0.54945544  0.20373075  0.00868083     0.17800
N890        N  0.52217673  0.15112401  0.04697624    -0.88900
H891        H  0.65600238  0.10941881  0.95406258     0.35200
H892        H  0.66546634  0.15233430  0.96772270     0.40300
H893        H  0.53130665  0.13921827  0.07087159     0.39900
H894        H  0.49858142  0.13791452  0.03833635     0.34800
C895        C  0.00475487  0.18356086  0.55278782    -0.26900
C896        C  0.03860886  0.18426052  0.57150687    -0.15000
C897        C  0.05256680  0.15078331  0.58632830     0.35600
C898        C  0.03347965  0.11803901  0.58158164    -0.26400
C899        C  0.00081848  0.11671554  0.56128056    -0.15600
C900        C  0.98572109  0.15026310  0.54756357     0.36700
N901        N  0.95171826  0.15034678  0.52761670    -0.89800
H902        H  0.99323044  0.20899950  0.54187892     0.17800
H903        H  0.04588002  0.09287750  0.59230412     0.17800
N904        N  0.08723335  0.14913944  0.60494026    -0.88900
H905        H  0.94462164  0.17699371  0.51895737     0.35200
H906        H  0.93091002  0.14274605  0.54506510     0.40300
H907        H  0.10487587  0.13028333  0.59146142     0.39900
H908        H  0.08271859  0.13907190  0.63059732     0.34800
C909        C  0.41116730  0.07379570  0.84264264    -0.26900
C910        C  0.42534503  0.05579129  0.81161736    -0.15000
C911        C  0.44205624  0.02020152  0.81518498     0.35600
C912        C  0.44731808  0.00527319  0.84967288    -0.26400
C913        C  0.43533141  0.02460913  0.88064909    -0.15600
C914        C  0.41612856  0.05873208  0.87674194     0.36700
N915        N  0.40291140  0.07950410  0.90722793    -0.89800
H916        H  0.39753281  0.10077548  0.84076741     0.17800
H917        H  0.46285737  0.97938970  0.85257628     0.17800
N918        N  0.45400644  0.99951577  0.78402616    -0.88900
H919        H  0.42540584  0.08515748  0.92374812     0.35200
H920        H  0.38511366  0.06302304  0.92141522     0.40300
H921        H  0.43047729  0.99381883  0.76882946     0.39900
H922        H  0.46582066  0.97400858  0.79130627     0.34800
C923        C  0.12408079  0.42426828  0.96284954    -0.26900
C924        C  0.12380706  0.44186350  0.99658576    -0.15000
C925        C  0.15812870  0.45324514  0.01088045     0.35600
C926        C  0.19077723  0.44836934  0.99051499    -0.26400
C927        C  0.19028579  0.43298681  0.95562050    -0.15600
C928        C  0.15610214  0.42059178  0.94215039     0.36700
N929        N  0.15287468  0.40572374  0.90657068    -0.89800
H930        H  0.09851896  0.41534983  0.95086793     0.17800
H931        H  0.21651901  0.45756678  0.00179674     0.17800
N932        N  0.16087868  0.46997163  0.04571880    -0.88900
H933        H  0.13380269  0.42225610  0.89242643     0.35200
H934        H  0.14248292  0.37920292  0.90819749     0.40300
H935        H  0.14902315  0.45256698  0.06427227     0.39900
H936        H  0.14635215  0.49529608  0.04595714     0.34800
C937        C  0.16123735  0.28143822  0.63160280    -0.26900
C938        C  0.13283361  0.25619760  0.63564623    -0.15000
C939        C  0.13252117  0.23448031  0.66681561     0.35600
C940        C  0.16073017  0.23774588  0.69251097    -0.26400
C941        C  0.18904016  0.26268598  0.68801658    -0.15600
C942        C  0.18912907  0.28482891  0.65731562     0.36700
N943        N  0.21770772  0.31038968  0.65124188    -0.89800
H944        H  0.16226142  0.29837602  0.60797286     0.17800
H945        H  0.16047998  0.22077739  0.71617516     0.17800
N946        N  0.10339102  0.20959217  0.67295238    -0.88900
H947        H  0.24309503  0.29581161  0.65125134     0.35200
H948        H  0.21765098  0.32960933  0.67236966     0.40300
H949        H  0.09047231  0.21735479  0.69699909     0.39900
H950        H  0.11520390  0.18310205  0.67605865     0.34800
C951        C  0.32207540  0.19644492  0.70898856    -0.26900
C952        C  0.30485771  0.20777366  0.74107976    -0.15000
C953        C  0.31573680  0.19039037  0.77308584     0.35600
C954        C  0.34413523  0.16315573  0.77269566    -0.26400
C955        C  0.36205303  0.15194271  0.74073263    -0.15600
C956        C  0.35024469  0.16892894  0.70834497     0.36700
N957        N  0.36569919  0.15887080  0.67426084    -0.89800
H958        H  0.31383699  0.20941693  0.68409889     0.17800
H959        H  0.35195996  0.15065095  0.79790438     0.17800
N960        N  0.29726569  0.19949491  0.80602419    -0.88900
H961        H  0.36283465  0.13054204  0.66990012     0.35200
H962        H  0.39359153  0.16528529  0.67433136     0.40300
H963        H  0.31695496  0.20845115  0.82445488     0.39900
H964        H  0.28605152  0.17542119  0.81584485     0.34800
C965        C  0.22040614  0.36065812  0.84225688    -0.26900
C966        C  0.25386024  0.37794844  0.85022523    -0.15000
C967        C  0.28474639  0.36933638  0.82786955     0.35600
C968        C  0.28176376  0.34326794  0.80002489    -0.26400
C969        C  0.24881095  0.32505141  0.79332410    -0.15600
C970        C  0.21759988  0.33426047  0.81448186     0.36700
N971        N  0.18343561  0.31595396  0.80855562    -0.89800
H972        H  0.19622198  0.36691072  0.85834488     0.17800
H973        H  0.30578257  0.33680476  0.78362914     0.17800
N974        N  0.31979013  0.38584973  0.83267229    -0.88900
H975        H  0.16305304  0.32614953  0.82614601     0.35200
H976        H  0.18795674  0.28804961  0.81450823     0.40300
H977        H  0.33019094  0.37893952  0.85789603     0.39900
H978        H  0.31638785  0.41448999  0.83053959     0.34800
C979        C  0.81872960  0.55150522  0.98553837    -0.26900
C980        C  0.81889956  0.56355987  0.94985041    -0.15000
C981        C  0.85294493  0.57390446  0.93514388     0.35600
C982        C  0.88520110  0.57231825  0.95579312    -0.26400
C983        C  0.88573664  0.55834851  0.99064480    -0.15600
C984        C  0.85185646  0.54805399  0.00584419     0.36700
N985        N  0.85122986  0.53342610  0.04137998    -0.89800
H986        H  0.79276996  0.54459515  0.99757525     0.17800
H987        H  0.91067374  0.57980489  0.94310296     0.17800
N988        N  0.85559368  0.58454999  0.89844726    -0.88900
H989        H  0.82444138  0.52652092  0.04830284     0.35200
H990        H  0.85901405  0.55441921  0.05910793     0.40300
H991        H  0.87432807  0.56634201  0.88556100     0.39900
H992        H  0.86618307  0.61106270  0.89776925     0.34800
C993        C  0.95611077  0.84709473  0.59252386    -0.26900
C994        C  0.96640954  0.81441243  0.57377713    -0.15000
C995        C  0.99792373  0.81496416  0.55165560     0.35600
C996        C  0.01465244  0.84870898  0.54465683    -0.26400
C997        C  0.00143323  0.88211755  0.56018146    -0.15600
C998        C  0.97331853  0.88047254  0.58647823     0.36700
N999        N  0.96100028  0.91206342  0.60727348    -0.89800
H1000       H  0.93334491  0.84735577  0.61120237     0.17800
H1001       H  0.03701811  0.84901152  0.52552714     0.17800
N1002       N  0.01330141  0.78127468  0.53680163    -0.88900
H1003       H  0.94607674  0.93045760  0.59123056     0.35200
H1004       H  0.98409661  0.92489558  0.61820729     0.40300
H1005       H  0.02259675  0.76548739  0.55842052     0.39900
H1006       H  0.03657115  0.78638864  0.52139683     0.34800
C1007       C  0.72955559  0.65315027  0.79615208    -0.26900
C1008       C  0.75776446  0.67874517  0.79744334    -0.15000
C1009       C  0.78391772  0.67674787  0.82546489     0.35600
C1010       C  0.78135129  0.64949639  0.85138673    -0.26400
C1011       C  0.75304319  0.62361594  0.85054643    -0.15600
C1012       C  0.72691396  0.62567786  0.82206987     0.36700
N1013       N  0.69761907  0.60034162  0.81824085    -0.89800
H1014       H  0.70929090  0.65457831  0.77473513     0.17800
H1015       H  0.80169152  0.64910957  0.87272815     0.17800
N1016       N  0.81263445  0.70284159  0.82907497    -0.88900
H1017       H  0.68014790  0.60337527  0.84029723     0.35200
H1018       H  0.70895403  0.57342783  0.81706532     0.40300
H1019       H  0.80055140  0.72944902  0.83009479     0.39900
H1020       H  0.82971343  0.70058690  0.80666937     0.34800
C1021       C  0.84627753  0.76483092  0.69914254    -0.26900
C1022       C  0.81730706  0.74054828  0.69419945    -0.15000
C1023       C  0.81454778  0.72040848  0.66192520     0.35600
C1024       C  0.84060926  0.72486038  0.63516602    -0.26400
C1025       C  0.86989789  0.74923161  0.63958257    -0.15600
C1026       C  0.87265310  0.76935481  0.67232935     0.36700
N1027       N  0.90193082  0.79402245  0.67955889    -0.89800
H1028       H  0.84816905  0.78064354  0.72389459     0.17800
H1029       H  0.83751062  0.70918383  0.61047952     0.17800
N1030       N  0.78509721  0.69568795  0.65543699    -0.88900
H1031       H  0.90015180  0.81565470  0.66136985     0.35200
H1032       H  0.92717564  0.77954816  0.67646034     0.40300
H1033       H  0.76000837  0.71062032  0.65763063     0.39900
H1034       H  0.78606241  0.67551281  0.67519092     0.34800
C1035       C  0.58202761  0.91683848  0.84231396    -0.26900
C1036       C  0.57248670  0.93785310  0.81197695    -0.15000
C1037       C  0.55999158  0.97477997  0.81700357     0.35600
C1038       C  0.55469565  0.98896464  0.85204580    -0.26400
C1039       C  0.56234416  0.96696033  0.88213561    -0.15600
C1040       C  0.57688192  0.93097803  0.87702620     0.36700
N1041       N  0.58450915  0.90794949  0.90719423    -0.89800
H1042       H  0.59229770  0.88853465  0.83923728     0.17800
H1043       H  0.54245545  0.01646321  0.85571035     0.17800
N1044       N  0.55306143  0.99796814  0.78685038    -0.88900
H1045       H  0.61234553  0.89945363  0.90623687     0.35200
H1046       H  0.56870143  0.88446089  0.90445731     0.40300
H1047       H  0.57034582  0.02044186  0.78902660     0.39900
H1048       H  0.52587260  0.00827140  0.78843775     0.34800
C1049       C  0.70325851  0.82367846  0.76320146    -0.26900
C1050       C  0.69941078  0.79152015  0.74273233    -0.15000
C1051       C  0.66809122  0.78769908  0.72063320     0.35600
C1052       C  0.64058780  0.81583447  0.72016037    -0.26400
C1053       C  0.64365414  0.84779215  0.74164222    -0.15600
C1054       C  0.67592140  0.85170250  0.76311558     0.36700
N1055       N  0.68244788  0.88401737  0.78451342    -0.89800
H1056       H  0.72774770  0.82695422  0.77958496     0.17800
H1057       H  0.61633195  0.81227028  0.70355507     0.17800
N1058       N  0.66362891  0.75547138  0.69859376    -0.88900
H1059       H  0.66379151  0.88551931  0.80575950     0.35200
H1060       H  0.67920665  0.90738445  0.76856389     0.40300
H1061       H  0.66412460  0.73239517  0.71509544     0.39900
H1062       H  0.68612210  0.75295316  0.68118206     0.34800
C1063       C  0.43220461  0.33989008  0.09111635    -0.26900
C1064       C  0.44697089  0.30634526  0.07675370    -0.15000
C1065       C  0.47989430  0.30687815  0.05667405     0.35600
C1066       C  0.49536181  0.34106956  0.04906107    -0.26400
C1067       C  0.47904987  0.37449585  0.06166339    -0.15600
C1068       C  0.44774698  0.37378268  0.08340354     0.36700
N1069       N  0.43036068  0.40763644  0.09583232    -0.89800
H1070       H  0.40720270  0.34020142  0.10692179     0.17800
H1071       H  0.51914732  0.34184244  0.03162517     0.17800
N1072       N  0.49714237  0.27301784  0.04365006    -0.88900
H1073       H  0.42924284  0.40695840  0.12377473     0.35200
H1074       H  0.40327037  0.40882876  0.08605191     0.40300
H1075       H  0.50541980  0.25759499  0.06590075     0.39900
H1076       H  0.52123870  0.27839195  0.02961099     0.34800
C1077       C  0.51624659  0.34556412  0.94854435    -0.26900
C1078       C  0.53741209  0.37594254  0.93968198    -0.15000
C1079       C  0.57308573  0.37004807  0.92598379     0.35600
C1080       C  0.58790046  0.33391068  0.92338049    -0.26400
C1081       C  0.56792530  0.30350656  0.93486723    -0.15600
C1082       C  0.53117499  0.30924758  0.94626824     0.36700
N1083       N  0.50950316  0.27849115  0.95610636    -0.89800
H1084       H  0.48910861  0.35043839  0.96011307     0.17800
H1085       H  0.61599039  0.32970627  0.91398953     0.17800
N1086       N  0.59509416  0.40107641  0.91758527    -0.88900
H1087       H  0.50587060  0.26215124  0.93313454     0.35200
H1088       H  0.48316860  0.28760354  0.96429962     0.40300
H1089       H  0.58214944  0.41499087  0.89637002     0.39900
H1090       H  0.62116750  0.39216455  0.90849537     0.34800
C1091       C  0.66333871  0.45319580  0.09622861    -0.26900
C1092       C  0.69406544  0.46326946  0.07586902    -0.15000
C1093       C  0.68922490  0.49421929  0.05320464     0.35600
C1094       C  0.65379542  0.51065585  0.04827216    -0.26400
C1095       C  0.62249363  0.49788121  0.06605846    -0.15600
C1096       C  0.62824657  0.46991373  0.09186168     0.36700
N1097       N  0.59909263  0.45708078  0.11379080    -0.89800
H1098       H  0.66589869  0.43092335  0.11516821     0.17800
H1099       H  0.65062957  0.53276424  0.02914187     0.17800
N1100       N  0.71947176  0.51010035  0.03516204    -0.88900
H1101       H  0.58025575  0.44298219  0.09786684     0.35200
H1102       H  0.58591499  0.47979304  0.12639869     0.40300
H1103       H  0.73088779  0.49053715  0.01739340     0.39900
H1104       H  0.73937770  0.51710811  0.05416786     0.34800
C1105       C  0.65444855  0.54447156  0.90783582    -0.26900
C1106       C  0.68829301  0.52985357  0.92078850    -0.15000
C1107       C  0.68772304  0.49728592  0.94120425     0.35600
C1108       C  0.65363450  0.48378472  0.95279551    -0.26400
C1109       C  0.61976944  0.50083515  0.94266666    -0.15600
C1110       C  0.62059338  0.53007347  0.91793685     0.36700
N1111       N  0.58711632  0.54640694  0.90385749    -0.89800
H1112       H  0.65386803  0.56833876  0.89069858     0.17800
H1113       H  0.65365968  0.46053503  0.97072773     0.17800
N1114       N  0.72158022  0.47773559  0.94975303    -0.88900
H1115       H  0.58797231  0.54407626  0.87595195     0.35200
H1116       H  0.58622574  0.57451608  0.91074770     0.40300
H1117       H  0.71626496  0.45392782  0.96406693     0.39900
H1118       H  0.73358234  0.46874969  0.92559892     0.34800
C1119       C  0.50571092  0.69131028  0.05692647    -0.26900
C1120       C  0.53691861  0.68957525  0.07960094    -0.15000
C1121       C  0.54518252  0.65573143  0.09717356     0.35600
C1122       C  0.52559545  0.62417195  0.08849039    -0.26400
C1123       C  0.49734697  0.62488244  0.06285530    -0.15600
C1124       C  0.48546008  0.65941751  0.04874969     0.36700
N1125       N  0.45375547  0.66203207  0.02550542    -0.89800
H1126       H  0.49789632  0.71723313  0.04442379     0.17800
H1127       H  0.53431353  0.59815038  0.10038030     0.17800
N1128       N  0.57462197  0.65233628  0.12278177    -0.88900
H1129       H  0.44859750  0.68934273  0.01791176     0.35200
H1130       H  0.45971367  0.64708599  0.00198250     0.40300
H1131       H  0.59360565  0.63204202  0.11354880     0.39900
H1132       H  0.56362630  0.64342370  0.14687322     0.34800
C1133       C  0.48334344  0.62462899  0.92235489    -0.26900
C1134       C  0.51093978  0.62429649  0.94863299    -0.15000
C1135       C  0.52346909  0.65827523  0.96241916     0.35600
C1136       C  0.50449101  0.69144172  0.95312311    -0.26400
C1137       C  0.47421267  0.69124982  0.92948365    -0.15600
C1138       C  0.46492891  0.65746311  0.91264905     0.36700
N1139       N  0.43519621  0.65567419  0.88730748    -0.89800
H1140       H  0.47400189  0.59879860  0.91107039     0.17800
H1141       H  0.51257194  0.71729804  0.96528753     0.17800
N1142       N  0.55332715  0.65880743  0.98785480    -0.88900
H1143       H  0.41560607  0.63786070  0.89714567     0.35200
H1144       H  0.44566290  0.64433093  0.86340519     0.40300
H1145       H  0.57716150  0.64922449  0.97459991     0.39900
H1146       H  0.55825871  0.68590787  0.99619394     0.34800
C1147       C  0.35466849  0.48858772  0.03759516    -0.26900
C1148       C  0.38601241  0.49765280  0.05798144    -0.15000
C1149       C  0.38086628  0.51980028  0.08898816     0.35600
C1150       C  0.34576028  0.53589369  0.09629061    -0.26400
C1151       C  0.31514940  0.53065165  0.07335548    -0.15600
C1152       C  0.31970814  0.50489877  0.04459361     0.36700
N1153       N  0.28997563  0.49530073  0.02126309    -0.89800
H1154       H  0.35766469  0.47079642  0.01416315     0.17800
H1155       H  0.34295466  0.55396061  0.11949865     0.17800
N1156       N  0.41157908  0.52711206  0.11224163    -0.88900
H1157       H  0.28084012  0.51878129  0.00746046     0.35200
H1158       H  0.26852763  0.48542229  0.03666966     0.40300
H1159       H  0.42051444  0.50196029  0.12321172     0.39900
H1160       H  0.40331837  0.54427875  0.13368898     0.34800
C1161       C  0.38931840  0.45995361  0.93222915    -0.26900
C1162       C  0.39027936  0.49749008  0.94216604    -0.15000
C1163       C  0.35646508  0.51775014  0.94559278     0.35600
C1164       C  0.32269861  0.50028595  0.93894862    -0.26400
C1165       C  0.32201372  0.46253060  0.92971441    -0.15600
C1166       C  0.35584391  0.44216565  0.92693466     0.36700
N1167       N  0.35607300  0.40300065  0.92001339    -0.89800
H1168       H  0.41485812  0.44361012  0.93065157     0.17800
H1169       H  0.29699822  0.51632572  0.94082588     0.17800
N1170       N  0.35627814  0.55600480  0.95573912    -0.88900
H1171       H  0.34353422  0.39068658  0.94172927     0.35200
H1172       H  0.38313366  0.39200013  0.91880487     0.40300
H1173       H  0.34075040  0.55939374  0.97915693     0.39900
H1174       H  0.34289817  0.57106725  0.93554653     0.34800
C1175       C  0.08876109  0.46054204  0.34290315    -0.26900
C1176       C  0.07261604  0.47421358  0.31115013    -0.15000
C1177       C  0.04990158  0.50663988  0.31309806     0.35600
C1178       C  0.03999261  0.52141825  0.34702000    -0.26400
C1179       C  0.05321866  0.50485535  0.37866254    -0.15600
C1180       C  0.07945858  0.47554874  0.37629101     0.36700
N1181       N  0.09563739  0.45978551  0.40791894    -0.89800
H1182       H  0.10747568  0.43661458  0.34239305     0.17800
H1183       H  0.02010814  0.54437366  0.34872440     0.17800
N1184       N  0.03645002  0.52395326  0.28099957    -0.88900
H1185       H  0.12431118  0.46151421  0.40610032     0.35200
H1186       H  0.08932410  0.43182965  0.40845562     0.40300
H1187       H  0.05930889  0.53338776  0.26720543     0.39900
H1188       H  0.01974347  0.54718062  0.28720254     0.34800
C1189       C  0.95069446  0.48128045  0.34372542    -0.26900
C1190       C  0.93619602  0.49683184  0.37572543    -0.15000
C1191       C  0.91129473  0.52744757  0.37343053     0.35600
C1192       C  0.90532723  0.54466899  0.34036439    -0.26400
C1193       C  0.92289174  0.53172805  0.30875087    -0.15600
C1194       C  0.94370351  0.49810078  0.31027148     0.36700
N1195       N  0.95718902  0.48059450  0.27809560    -0.89800
H1196       H  0.96913576  0.45715615  0.34480644     0.17800
H1197       H  0.88767619  0.56935542  0.33984677     0.17800
N1198       N  0.89305932  0.54182342  0.40503677    -0.88900
H1199       H  0.94521567  0.45483110  0.27581383     0.35200
H1200       H  0.98563323  0.47579237  0.28078232     0.40300
H1201       H  0.87599794  0.52131293  0.41432673     0.39900
H1202       H  0.87580011  0.56458766  0.39895323     0.34800
C1203       C  0.05706199  0.50572711  0.64849953    -0.26900
C1204       C  0.06310036  0.52585024  0.61734669    -0.15000
C1205       C  0.08259705  0.55876890  0.61977423     0.35600
C1206       C  0.09551327  0.57098914  0.65307773    -0.26400
C1207       C  0.08839065  0.55170714  0.68470194    -0.15600
C1208       C  0.06932334  0.51826265  0.68205063     0.36700
N1209       N  0.06224426  0.49626272  0.71266472    -0.89800
H1210       H  0.04113510  0.48092176  0.64696676     0.17800
H1211       H  0.11008219  0.59663603  0.65432532     0.17800
N1212       N  0.08843301  0.58101078  0.58904984    -0.88900
H1213       H  0.04499484  0.51143527  0.73015787     0.35200
H1214       H  0.08732100  0.49006516  0.72553260     0.40300
H1215       H  0.06270686  0.58955354  0.57891887     0.39900
H1216       H  0.10202167  0.56463488  0.56959449     0.34800
C1217       C  0.94675730  0.48431546  0.65259521    -0.26900
C1218       C  0.93258426  0.47010062  0.62037218    -0.15000
C1219       C  0.90907850  0.43985161  0.62151512     0.35600
C1220       C  0.90267255  0.42295109  0.65444296    -0.26400
C1221       C  0.91930528  0.43523359  0.68656435    -0.15600
C1222       C  0.94022771  0.46746130  0.68553061     0.36700
N1223       N  0.95604107  0.48261996  0.71748045    -0.89800
H1224       H  0.96521187  0.50727004  0.65191977     0.17800
H1225       H  0.88573324  0.39886534  0.65436270     0.17800
N1226       N  0.89305600  0.42417831  0.58970209    -0.88900
H1227       H  0.94635087  0.51000563  0.72033502     0.35200
H1228       H  0.98466282  0.48272044  0.71422387     0.40300
H1229       H  0.89935551  0.43936123  0.56706757     0.39900
H1230       H  0.86439983  0.42638335  0.59243953     0.34800
C1231       C  0.03861481  0.34913127  0.48611390    -0.26900
C1232       C  0.05836565  0.38058212  0.49576557    -0.15000
C1233       C  0.08706524  0.37652828  0.52114189     0.35600
C1234       C  0.09267694  0.34292333  0.53890931    -0.26400
C1235       C  0.07036535  0.31234496  0.53214169    -0.15600
C1236       C  0.04428374  0.31522469  0.50394087     0.36700
N1237       N  0.02317819  0.28412829  0.49360541    -0.89800
H1238       H  0.01691006  0.35152620  0.46615739     0.17800
H1239       H  0.11414032  0.34152372  0.55915702     0.17800
N1240       N  0.10992980  0.40688314  0.53004174    -0.88900
H1241       H  0.00685453  0.29027353  0.47127162     0.35200
H1242       H  0.00524411  0.27880761  0.51461689     0.40300
H1243       H  0.13738430  0.39864113  0.52512612     0.39900
H1244       H  0.10724313  0.41260014  0.55743968     0.34800
C1245       C  0.93746435  0.31475116  0.49311076    -0.26900
C1246       C  0.92342530  0.31396502  0.45795084    -0.15000
C1247       C  0.91208061  0.34805698  0.44247239     0.35600
C1248       C  0.91763527  0.38139571  0.46077736    -0.26400
C1249       C  0.93601334  0.38254491  0.49389582    -0.15600
C1250       C  0.94458100  0.34862166  0.51101698     0.36700
N1251       N  0.96153786  0.34859929  0.54585998    -0.89800
H1252       H  0.94367896  0.28885256  0.50626305     0.17800
H1253       H  0.91016453  0.40679103  0.44713830     0.17800
N1254       N  0.89655009  0.34954441  0.40715349    -0.88900
H1255       H  0.96634170  0.32154883  0.55458372     0.35200
H1256       H  0.94270974  0.36112834  0.56372293     0.40300
H1257       H  0.91345654  0.36543117  0.39126652     0.39900
H1258       H  0.87062789  0.36297554  0.40878232     0.34800
C1259       C  0.95105770  0.64772704  0.48786130    -0.26900
C1260       C  0.93196628  0.61727622  0.50038227    -0.15000
C1261       C  0.90607749  0.62320475  0.52810707     0.35600
C1262       C  0.90285244  0.65804407  0.54492421    -0.26400
C1263       C  0.92479042  0.68778915  0.53506184    -0.15600
C1264       C  0.94778412  0.68275658  0.50478405     0.36700
N1265       N  0.96819618  0.71272207  0.49140639    -0.89800
H1266       H  0.97053209  0.64372681  0.46611912     0.17800
H1267       H  0.88375151  0.66121826  0.56701765     0.17800
N1268       N  0.88436933  0.59340906  0.54045088    -0.88900
H1269       H  0.98296445  0.70440816  0.46846399     0.35200
H1270       H  0.98785897  0.71895178  0.51061987     0.40300
H1271       H  0.86687022  0.58582661  0.51944373     0.39900
H1272       H  0.86738596  0.60205837  0.56169594     0.34800
C1273       C  0.09021848  0.64260355  0.45070195    -0.26900
C1274       C  0.07838912  0.67675602  0.46555187    -0.15000
C1275       C  0.06121680  0.67686644  0.49941526     0.35600
C1276       C  0.04980876  0.64322005  0.51396012    -0.26400
C1277       C  0.05829461  0.60912216  0.49684133    -0.15600
C1278       C  0.08139168  0.60916720  0.46636470     0.36700
N1279       N  0.09499689  0.57536646  0.45010457    -0.89800
H1280       H  0.10554365  0.64145339  0.42586197     0.17800
H1281       H  0.03356648  0.64377407  0.53824501     0.17800
N1282       N  0.05635293  0.71075639  0.51931824    -0.88900
H1283       H  0.12383855  0.57557608  0.45020571     0.35200
H1284       H  0.08614698  0.57477006  0.42342558     0.40300
H1285       H  0.08256843  0.72095132  0.52435974     0.39900
H1286       H  0.04499737  0.70554024  0.54434441     0.34800
C1287       C  0.45696829  0.09661074  0.65269253    -0.26900
C1288       C  0.46629664  0.07944118  0.68525986    -0.15000
C1289       C  0.49718555  0.05445421  0.68532928     0.35600
C1290       C  0.51462438  0.04385018  0.65271264    -0.26400
C1291       C  0.50252047  0.05848685  0.61977826    -0.15600
C1292       C  0.47449342  0.08670955  0.62048315     0.36700
N1293       N  0.46299155  0.10605626  0.58891080    -0.89800
H1294       H  0.43471208  0.11718796  0.65160094     0.17800
H1295       H  0.53647001  0.02268812  0.65304148     0.17800
N1296       N  0.51123090  0.03998759  0.71830170    -0.88900
H1297       H  0.44923697  0.08820928  0.57165903     0.35200
H1298       H  0.48634029  0.11571422  0.57618906     0.40300
H1299       H  0.51131346  0.01119146  0.71651727     0.39900
H1300       H  0.53860518  0.04774264  0.72102064     0.34800
C1301       C  0.48760285  0.94609796  0.65072967    -0.26900
C1302       C  0.50316532  0.93559436  0.61758078    -0.15000
C1303       C  0.53452899  0.91124364  0.61731753     0.35600
C1304       C  0.55190760  0.90156757  0.64971149    -0.26400
C1305       C  0.53849689  0.91473897  0.68296581    -0.15600
C1306       C  0.50447419  0.93527627  0.68340995     0.36700
N1307       N  0.48725416  0.94535825  0.71684314    -0.89800
H1308       H  0.46330615  0.96434499  0.65121893     0.17800
H1309       H  0.57703235  0.88457002  0.64863650     0.17800
N1310       N  0.54962640  0.89754094  0.58393856    -0.88900
H1311       H  0.48002865  0.92096897  0.72927965     0.35200
H1312       H  0.46263160  0.96052246  0.71244989     0.40300
H1313       H  0.52984558  0.88111061  0.57177478     0.39900
H1314       H  0.57301849  0.88045032  0.58823891     0.34800
C1315       C  0.35241582  0.10779848  0.46256069    -0.26900
C1316       C  0.31946499  0.09225695  0.47379504    -0.15000
C1317       C  0.32140461  0.06695774  0.50246228     0.35600
C1318       C  0.35603217  0.05445449  0.51551894    -0.26400
C1319       C  0.38915900  0.06733976  0.50147575    -0.15600
C1320       C  0.38676068  0.09601800  0.47587658     0.36700
N1321       N  0.41849727  0.11324724  0.46168612    -0.89800
H1322       H  0.35200005  0.12832373  0.44172509     0.17800
H1323       H  0.35693907  0.03356607  0.53601827     0.17800
N1324       N  0.28902345  0.05432897  0.51968039    -0.88900
H1325       H  0.43361330  0.09420158  0.44584372     0.35200
H1326       H  0.43466904  0.12286380  0.48284153     0.40300
H1327       H  0.27360938  0.03919243  0.50146858     0.39900
H1328       H  0.27316138  0.07740365  0.52829152     0.34800
C1329       C  0.35822756  0.94706202  0.48467988    -0.26900
C1330       C  0.39259724  0.93155137  0.49534145    -0.15000
C1331       C  0.39273025  0.89959169  0.51693600     0.35600
C1332       C  0.35961844  0.88760112  0.53106410    -0.26400
C1333       C  0.32577394  0.90661675  0.52471419    -0.15600
C1334       C  0.32498566  0.93468386  0.49887040     0.36700
N1335       N  0.29074223  0.95117723  0.48719447    -0.89800
H1336       H  0.35703802  0.97054224  0.46699860     0.17800
H1337       H  0.36106213  0.86443485  0.54910094     0.17800
N1338       N  0.42591019  0.87919518  0.52617747    -0.88900
H1339       H  0.28859832  0.94685565  0.45947755     0.35200
H1340       H  0.29195993  0.97948286  0.49179691     0.40300
H1341       H  0.44156361  0.89465484  0.54403134     0.39900
H1342       H  0.44096474  0.87329914  0.50282028     0.34800
C1343       C  0.57191808  0.06961573  0.37810609    -0.26900
C1344       C  0.53509545  0.05932479  0.37945394    -0.15000
C1345       C  0.51434578  0.05797640  0.34732475     0.35600
C1346       C  0.53135335  0.06475900  0.31450546    -0.26400
C1347       C  0.56876995  0.07345079  0.31292578    -0.15600
C1348       C  0.58885152  0.07707951  0.34553738     0.36700
N1349       N  0.62710779  0.08590949  0.34653006    -0.89800
H1350       H  0.58834618  0.06973126  0.40244458     0.17800
H1351       H  0.51537302  0.06253072  0.29001776     0.17800
N1352       N  0.47636391  0.04828670  0.34710695    -0.88900
H1353       H  0.62994771  0.11276895  0.33730184     0.35200
H1354       H  0.64192807  0.06725116  0.33005015     0.40300
H1355       H  0.46185266  0.06670496  0.36411245     0.39900
H1356       H  0.47443618  0.02173939  0.35719361     0.34800
C1357       C  0.49171765  0.94513204  0.34547811    -0.26900
C1358       C  0.47582768  0.93143601  0.37671205    -0.15000
C1359       C  0.44422843  0.90991390  0.37354430     0.35600
C1360       C  0.42800012  0.90481667  0.33971108    -0.26400
C1361       C  0.44201610  0.92117112  0.30865246    -0.15600
C1362       C  0.47506399  0.94049924  0.31168026     0.36700
N1363       N  0.49133311  0.95642519  0.28088179    -0.89800
H1364       H  0.51563684  0.96225632  0.34770998     0.17800
H1365       H  0.40293584  0.88936454  0.33826066     0.17800
N1366       N  0.42648625  0.89489532  0.40421636    -0.88900
H1367       H  0.51825301  0.94544794  0.27832306     0.35200
H1368       H  0.49288988  0.98488575  0.28544739     0.40300
H1369       H  0.44150815  0.89984216  0.42763065     0.39900
H1370       H  0.42667112  0.86620736  0.40079392     0.34800
C1371       C  0.68490709  0.04911951  0.50389767    -0.26900
C1372       C  0.68392692  0.07087594  0.53526687    -0.15000
C1373       C  0.65040210  0.09024030  0.54400038     0.35600
C1374       C  0.61806573  0.08268071  0.52508354    -0.26400
C1375       C  0.61784688  0.05583583  0.49767685    -0.15600
C1376       C  0.65245247  0.04133359  0.48501712     0.36700
N1377       N  0.65580687  0.01812554  0.45373327    -0.89800
H1378       H  0.71078437  0.03655881  0.49488090     0.17800
H1379       H  0.59240586  0.09578224  0.53419144     0.17800
N1380       N  0.64826496  0.11648455  0.57304818    -0.88900
H1381       H  0.64451751  0.99251840  0.45853512     0.35200
H1382       H  0.64176410  0.03098184  0.43260147     0.40300
H1383       H  0.62901555  0.10753731  0.59152826     0.39900
H1384       H  0.63860697  0.14181295  0.56297146     0.34800
C1385       C  0.65136116  0.94554240  0.51943294    -0.26900
C1386       C  0.61971839  0.92785606  0.50687243    -0.15000
C1387       C  0.62439534  0.89750456  0.48305686     0.35600
C1388       C  0.65913206  0.88999439  0.46757749    -0.26400
C1389       C  0.68976632  0.91169310  0.47565246    -0.15600
C1390       C  0.68622506  0.93767198  0.50440381     0.36700
N1391       N  0.71691626  0.95709781  0.51861477    -0.89800
H1392       H  0.64869247  0.96779920  0.53903876     0.17800
H1393       H  0.66152236  0.86814324  0.44757233     0.17800
N1394       N  0.59348006  0.87564666  0.47305161    -0.88900
H1395       H  0.72706370  0.97428487  0.49902416     0.35200
H1396       H  0.73748003  0.93780529  0.52610624     0.40300
H1397       H  0.58459076  0.86255720  0.49620503     0.39900
H1398       H  0.60143168  0.85475313  0.45496359     0.34800
loop_ 
_geom_bond_atom_site_label_1 
_geom_bond_atom_site_label_2 
_geom_bond_distance 
_geom_bond_site_symmetry_2 
_ccdc_geom_bond_type 
O1            C9   1.264       .  A
O1          Co21   1.974       .  S
O2           C10   1.264       .  A
O2          Co22   1.951       .  S
O3           C11   1.285       .  A
O3          Co23   2.066   1_565  S
O4           C12   1.266       .  A
O4          Co24   1.983   1_565  S
O5           C11   1.273       .  A
O5          Co22   1.941       .  S
O6           C12   1.273       .  A
O6          Co21   1.997       .  S
O7           C10   1.285       .  A
O7          Co24   2.052   1_565  S
O8            C9   1.268       .  A
O8          Co23   2.014   1_565  S
C9         C1386   1.491       .  S
C10        C1330   1.492       .  S
C11        C1302   1.493       .  S
C12        C1358   1.474       .  S
O13          C26   1.267       .  A
O13         Co21   1.991   1_545  S
O14          C27   1.285       .  A
O14         Co22   2.070   1_545  S
O15          C28   1.273       .  A
O15         Co23   1.964       .  S
O16          C29   1.254       .  A
O16         Co24   1.960       .  S
O17          C29   1.269       .  A
O17         Co22   2.034   1_545  S
O18          C28   1.279       .  A
O18         Co21   2.030   1_545  S
O19          C26   1.272       .  A
O19         Co24   1.994       .  S
O20          C27   1.272       .  A
O20         Co23   1.945       .  S
Co21         O25   2.027       .  S
Co22         O25   2.034       .  S
Co23         O25   2.023   1_545  S
Co24         O25   2.019   1_545  S
C26        C1344   1.472       .  S
C27        C1291   1.497       .  S
C28        C1375   1.491       .  S
C29        C1319   1.494       .  S
O30          C38   1.258       .  A
O30         Co50   1.965       .  S
O31          C39   1.271       .  A
O31         Co51   1.964       .  S
O32          C40   1.292       .  A
O32         Co52   2.078   1_655  S
O33          C41   1.268       .  A
O33         Co53   1.990   1_655  S
O34          C40   1.269       .  A
O34         Co51   1.932       .  S
O35          C41   1.273       .  A
O35         Co50   1.996       .  S
O36          C39   1.284       .  A
O36         Co53   2.055   1_655  S
O37          C38   1.262       .  A
O37         Co52   2.010   1_655  S
C38        C1260   1.492       .  S
C39        C1249   1.498       .  S
C40        C1190   1.493       .  S
C41        C1218   1.474       .  S
O42          C55   1.264       .  A
O42         Co50   1.987   1_455  S
O43          C56   1.290       .  A
O43         Co51   2.078   1_455  S
O44          C57   1.263       .  A
O44         Co52   1.956       .  S
O45          C58   1.257       .  A
O45         Co53   1.964       .  S
O46          C58   1.265       .  A
O46         Co51   2.023   1_455  S
O47          C57   1.284       .  A
O47         Co50   2.062   1_455  S
O48          C55   1.269       .  A
O48         Co53   1.992       .  S
O49          C56   1.265       .  A
O49         Co52   1.913       .  S
Co50         O54   2.046       .  S
Co51         O54   2.037       .  S
Co52         O54   2.027   1_455  S
Co53         O54   2.032   1_455  S
C55        C1204   1.469       .  S
C56        C1179   1.475       .  S
C57        C1277   1.498       .  S
C58        C1232   1.495       .  S
O59          C67   1.259       .  A
O59         Co79   1.963       .  S
O60          C68   1.265       .  A
O60         Co80   1.960       .  S
O61          C69   1.293       .  A
O61         Co81   2.084   1_556  S
O62          C70   1.263       .  A
O62         Co82   1.973   1_556  S
O63          C69   1.265       .  A
O63         Co80   1.909       .  S
O64          C70   1.267       .  A
O64         Co79   1.982       .  S
O65          C68   1.284       .  A
O65         Co82   2.061   1_556  S
O66          C67   1.265       .  A
O66         Co81   2.029   1_556  S
C67        C1162   1.495       .  S
C68        C1109   1.500       .  S
C69        C1134   1.478       .  S
C70        C1078   1.458       .  S
O71          C84   1.268       .  A
O71         Co79   1.990   1_554  S
O72          C85   1.293       .  A
O72         Co80   2.076   1_554  S
O73          C86   1.272       .  A
O73         Co81   1.972       .  S
O74          C87   1.256       .  A
O74         Co82   1.964       .  S
O75          C87   1.264       .  A
O75         Co80   2.026   1_554  S
O76          C86   1.280       .  A
O76         Co79   2.036   1_554  S
O77          C84   1.273       .  A
O77         Co82   1.992       .  S
O78          C85   1.271       .  A
O78         Co81   1.926       .  S
Co79         O83   2.034   1_556  S
Co80         O83   2.024   1_556  S
Co81         O83   2.043       .  S
Co82         O83   2.042       .  S
C84        C1067   1.467       .  S
C85        C1123   1.489       .  S
C86        C1148   1.495       .  S
C87        C1095   1.503       .  S
C88        C1036   1.487       .  S
C88          N89   1.349       .  A
C88          N93   1.367       .  A
N89          C90   1.345       .  A
C90        C1053   1.485       .  S
C90          N91   1.359       .  A
N91          C92   1.368       .  A
C92        C1305   1.506       .  S
C92          N93   1.372       .  A
C94        C1022   1.471       .  S
C94          C95   1.404       .  A
C94          C99   1.397       .  A
C95          C96   1.407       .  A
C95         H100   1.084       .  S
C96        C1008   1.483       .  S
C96          C97   1.405       .  A
C97          C98   1.402       .  A
C97         H101   1.084       .  S
C98        C1050   1.471       .  S
C98          C99   1.396       .  A
C99         H102   1.085       .  S
C103        C994   1.504       .  S
C103        N104   1.373       .  A
C103        N108   1.363       .  A
N104        C105   1.370       .  A
C105       C1263   1.507       .  S
C105        N106   1.352       .  A
N106        C107   1.349       .  A
C107       C1025   1.489       .  S
C107        N108   1.355       .  A
C109        C980   1.501       .  S
C109        N110   1.368       .  A
C109        N114   1.355       .  A
N110        C111   1.373       .  A
C111       C1106   1.503       .  S
C111        N112   1.365       .  A
N112        C113   1.358       .  A
C113       C1011   1.500       .  S
C113        N114   1.352       .  A
C115        C952   1.490       .  S
C115        C116   1.404       .  A
C115        C120   1.407       .  A
C116        C117   1.402       .  A
C116        H121   1.084       .  S
C117        C941   1.477       .  S
C117        C118   1.403       .  A
C118        C119   1.406       .  A
C118        H122   1.083       .  S
C119        C969   1.491       .  S
C119        C120   1.407       .  A
C120        H123   1.083       .  S
C124       C1165   1.492       .  S
C124        N125   1.361       .  A
C124        N129   1.370       .  A
N125        C126   1.355       .  A
C126        C966   1.504       .  S
C126        N127   1.355       .  A
N127        C128   1.359       .  A
C128        C927   1.507       .  S
C128        N129   1.370       .  A
C130        C910   1.500       .  S
C130        N131   1.356       .  A
C130        N135   1.370       .  A
N131        C132   1.355       .  A
C132        C955   1.499       .  S
C132        N133   1.358       .  A
N133        C134   1.364       .  A
C134       C1288   1.510       .  S
C134        N135   1.371       .  A
C136        C896   1.506       .  S
C136        N137   1.361       .  A
C136        N141   1.371       .  A
N137        C138   1.355       .  A
C138        C938   1.490       .  S
C138        N139   1.352       .  A
N139        C140   1.357       .  A
C140       C1235   1.508       .  S
C140        N141   1.372       .  A
O142        C150   1.266       .  A
O142       Co162   1.986       .  S
O143        C151   1.287   1_565  A
O143       Co163   2.071       .  S
O144        C152   1.264   1_556  A
O144       Co164   1.977       .  S
O145        C153   1.269   1_554  A
O145       Co165   1.961       .  S
O146        C152   1.266       .  A
O146       Co163   2.017       .  S
O147        C153   1.280       .  A
O147       Co162   2.043       .  S
O148        C151   1.272       .  A
O148       Co165   1.942       .  S
O149        C150   1.276   1_565  A
O149       Co164   2.003       .  S
C150        C913   1.478       .  S
C151        C854   1.495       .  S
C152        C826   1.494       .  S
C153        C868   1.497   1_556  S
O154        C167   1.262   1_556  A
O154       Co162   1.972       .  S
O155        C168   1.271   1_554  A
O155       Co163   1.964       .  S
O156        C169   1.265       .  A
O156       Co164   1.982       .  S
O157        C170   1.287   1_545  A
O157       Co165   2.072       .  S
O158        C170   1.270       .  A
O158       Co163   1.941       .  S
O159        C169   1.271       .  A
O159       Co162   1.991   1_565  S
O160        C167   1.268       .  A
O160       Co165   2.029       .  S
O161        C168   1.283       .  A
O161       Co164   2.049       .  S
Co162       O166   2.034   1_545  S
Co163       O166   2.029   1_554  S
Co164       O166   2.039       .  S
Co165       O166   2.031   1_544  S
C167        C882   1.498       .  S
C168        C812   1.496   1_556  S
C169       C1039   1.469       .  S
C170        C840   1.492       .  S
C171        C798   1.473       .  S
C171        C172   1.401       .  A
C171        C176   1.399       .  A
C172        C173   1.407       .  A
C172        H177   1.083       .  S
C173        C784   1.486       .  S
C173        C174   1.406       .  A
C174        C175   1.401       .  A
C174        H178   1.084       .  S
C175        C770   1.477       .  S
C175        C176   1.399       .  A
C176        H179   1.084       .  S
C180        C829   1.503       .  S
C180        N181   1.369       .  A
C180        N185   1.362       .  A
N181        C182   1.366       .  A
C182       C1137   1.488       .  S
C182        N183   1.351       .  A
N183        C184   1.347       .  A
C184        C801   1.476       .  S
C184        N185   1.356       .  A
C186        C756   1.497       .  S
C186        N187   1.357       .  A
C186        N191   1.366       .  A
N187        C188   1.353       .  A
C188        C787   1.487       .  S
C188        N189   1.355       .  A
N189        C190   1.360       .  A
C190       C1333   1.498       .  S
C190        N191   1.368       .  A
C192        C745   1.498       .  S
C192        N193   1.366       .  A
C192        N197   1.358       .  A
N193        C194   1.364       .  A
C194       C1207   1.488       .  S
C194        N195   1.354       .  A
N195        C196   1.351       .  A
C196        C773   1.485       .  S
C196        N197   1.357       .  A
C198        C717   1.479       .  S
C198        C199   1.404       .  A
C198        C203   1.404       .  A
C199        C200   1.400       .  A
C199        H204   1.084       .  S
C200        C703   1.469       .  S
C200        C201   1.398       .  A
C201        C202   1.399       .  A
C201        H205   1.084       .  S
C202        C731   1.472       .  S
C202        C203   1.403       .  A
C203        H206   1.084       .  S
C207        C686   1.506       .  S
C207        N208   1.359       .  A
C207        N212   1.375       .  A
N208        C209   1.353       .  A
C209        C728   1.489       .  S
C209        N210   1.351       .  A
N210        C211   1.355       .  A
C211       C1246   1.504       .  S
C211        N212   1.374       .  A
C213        C675   1.504       .  S
C213        N214   1.371       .  A
C213        N218   1.360       .  A
N214        C215   1.371       .  A
C215       C1092   1.511       .  S
C215        N216   1.360       .  A
N216        C217   1.354       .  A
C217        C714   1.496       .  S
C217        N218   1.356       .  A
C219        C843   1.509       .  S
C219        N220   1.360       .  A
C219        N224   1.369       .  A
N220        C221   1.355       .  A
C221        C700   1.478       .  S
C221        N222   1.351       .  A
N222        C223   1.354       .  A
C223       C1347   1.488       .  S
C223        N224   1.369       .  A
O225        C233   1.258   1_556  A
O225       Co245   1.962       .  S
O226        C234   1.272   1_554  A
O226       Co246   1.966       .  S
O227        C235   1.290   1_655  A
O227       Co247   2.067       .  S
O228        C236   1.266       .  A
O228       Co248   1.979       .  S
O229        C235   1.271       .  A
O229       Co246   1.936       .  S
O230        C236   1.273   1_655  A
O230       Co245   1.997       .  S
O231        C234   1.279       .  A
O231       Co248   2.047       .  S
O232        C233   1.264       .  A
O232       Co247   2.032       .  S
C233        C983   1.498   1_554  S
C234        C658   1.499   1_556  S
C235        C630   1.494       .  S
C236        C742   1.471       .  S
O237        C250   1.266       .  A
O237       Co245   1.984       .  S
O238        C251   1.288   1_455  A
O238       Co246   2.064       .  S
O239        C252   1.264   1_554  A
O239       Co247   1.956       .  S
O240        C253   1.258   1_556  A
O240       Co248   1.962       .  S
O241        C253   1.264       .  A
O241       Co246   2.034       .  S
O242        C252   1.285       .  A
O242       Co245   2.069       .  S
O243        C250   1.269   1_455  A
O243       Co248   1.985       .  S
O244        C251   1.270       .  A
O244       Co247   1.928       .  S
Co245       O249   2.035   1_655  S
Co246       O249   2.034   1_554  S
Co247       O249   2.040   1_654  S
Co248       O249   2.030       .  S
C250        C616   1.464       .  S
C251        C644   1.482   1_655  S
C252        C672   1.504   1_556  S
C253        C924   1.502   1_554  S
C254        C591   1.492       .  S
C254        N255   1.354       .  A
C254        N259   1.364       .  A
N255        C256   1.354       .  A
C256        C602   1.483       .  S
C256        N257   1.355       .  A
N257        C258   1.361       .  A
C258       C1316   1.496       .  S
C258        N259   1.365       .  A
C260        C605   1.486       .  S
C260        C261   1.402       .  A
C260        C265   1.407       .  A
C261        C262   1.398       .  A
C261        H266   1.084       .  S
C262        C577   1.472       .  S
C262        C263   1.397       .  A
C263        C264   1.399       .  A
C263        H267   1.084       .  S
C264        C563   1.470       .  S
C264        C265   1.403       .  A
C265        H268   1.083       .  S
C269        C647   1.487       .  S
C269        N270   1.357       .  A
C269        N274   1.368       .  A
N270        C271   1.349       .  A
C271        C574   1.482       .  S
C271        N272   1.346       .  A
N272        C273   1.354       .  A
C273       C1176   1.489       .  S
C273        N274   1.367       .  A
C275        C871   1.499       .  S
C275        N276   1.367       .  A
C275        N280   1.360       .  A
N276        C277   1.365       .  A
C277       C1064   1.489       .  S
C277        N278   1.354       .  A
N278        C279   1.352       .  A
C279        C560   1.478       .  S
C279        N280   1.356       .  A
C281        C549   1.469       .  S
C281        C282   1.398       .  A
C281        C286   1.403       .  A
C282        C283   1.395       .  A
C282        H287   1.084       .  S
C283        C518   1.454       .  S
C283        C284   1.391       .  A
C284        C285   1.396       .  A
C284        H288   1.085       .  S
C285        C532   1.468       .  S
C285        C286   1.402       .  A
C286        H289   1.084       .  S
C290       C1221   1.500       .  S
C290        N291   1.368       .  A
C290        N295   1.362       .  A
N291        C292   1.364       .  A
C292        C619   1.479       .  S
C292        N293   1.348       .  A
N293        C294   1.348       .  A
C294        C546   1.480       .  S
C294        N295   1.358       .  A
C296       C1081   1.480       .  S
C296        N297   1.369       .  A
C296        N301   1.349       .  A
N297        C298   1.371       .  A
C298        C885   1.502       .  S
C298        N299   1.361       .  A
N299        C300   1.351       .  A
C300        C535   1.457       .  S
C300        N301   1.343       .  A
C302       C1372   1.495       .  S
C302        N303   1.357       .  A
C302        N307   1.372       .  A
N303        C304   1.349       .  A
C304        C521   1.472       .  S
C304        N305   1.341       .  A
N305        C306   1.348       .  A
C306        C504   1.484       .  S
C306        N307   1.368       .  A
C308        C493   1.476       .  S
C308        C309   1.404       .  A
C308        C313   1.403       .  A
C309        C310   1.405       .  A
C309        H314   1.083       .  S
C310        C465   1.479       .  S
C310        C311   1.402       .  A
C311        C312   1.401       .  A
C311        H315   1.084       .  S
C312        C476   1.477       .  S
C312        C313   1.402       .  A
C313        H316   1.084       .  S
C317       C1389   1.501       .  S
C317        N318   1.363       .  A
C317        N322   1.365       .  A
N318        C319   1.357       .  A
C319        C490   1.493       .  S
C319        N320   1.353       .  A
N320        C321   1.356       .  A
C321        C448   1.487       .  S
C321        N322   1.362       .  A
C323        C633   1.501       .  S
C323        N324   1.358       .  A
C323        N328   1.374       .  A
N324        C325   1.349       .  A
C325        C479   1.476       .  S
C325        N326   1.351       .  A
N326        C327   1.360       .  A
C327       C1193   1.504       .  S
C327        N328   1.374       .  A
C329        C815   1.500       .  S
C329        N330   1.372       .  A
C329        N334   1.355       .  A
N330        C331   1.372       .  A
C331       C1120   1.505       .  S
C331        N332   1.359       .  A
N332        C333   1.351       .  A
C333        C462   1.472       .  S
C333        N334   1.349       .  A
C335        C420   1.474       .  S
C335        C336   1.401       .  A
C335        C340   1.404       .  A
C336        C337   1.404       .  A
C336        H341   1.084       .  S
C337        C406   1.484       .  S
C337        C338   1.404       .  A
C338        C339   1.401       .  A
C338        H342   1.084       .  S
C339        C434   1.479       .  S
C339        C340   1.404       .  A
C340        H343   1.084       .  S
C344       C1361   1.498       .  S
C344        N345   1.369       .  A
C344        N349   1.354       .  A
N345        C346   1.371       .  A
C346        C857   1.511       .  S
C346        N347   1.364       .  A
N347        C348   1.358       .  A
C348        C437   1.479       .  S
C348        N349   1.351       .  A
C350       C1274   1.497       .  S
C350        N351   1.362       .  A
C350        N355   1.371       .  A
N351        C352   1.354       .  A
C352        C423   1.483       .  S
C352        N353   1.346       .  A
N353        C354   1.352       .  A
C354        C392   1.487       .  S
C354        N355   1.369       .  A
C356       C1151   1.507       .  S
C356        N357   1.360       .  A
C356        N361   1.370       .  A
N357        C358   1.354       .  A
C358        C409   1.490       .  S
C358        N359   1.353       .  A
N359        C360   1.356       .  A
C360        C661   1.505       .  S
C360        N361   1.369       .  A
O362        C370   1.254   1_655  A
O362       Co382   1.939       .  S
O363        C371   1.261   1_455  A
O363       Co383   1.963       .  S
O364        C372   1.265       .  A
O364       Co384   1.979       .  S
O365        C373   1.272   1_545  A
O365       Co385   2.032       .  S
O366        C372   1.272   1_545  A
O366       Co383   1.994       .  S
O367        C373   1.234       .  A
O367       Co382   1.928       .  S
O368        C371   1.268       .  A
O368       Co385   2.031       .  S
O369        C370   1.283       .  A
O369       Co384   2.060       .  S
C370        C997   1.493       .  S
C371        C899   1.501   1_655  S
C372        C759   1.469       .  S
C373        C507   1.469       .  S
O374        C387   1.288   1_565  A
O374       Co382   2.041       .  S
O375        C388   1.264       .  A
O375       Co383   1.986       .  S
O376        C389   1.264   1_455  A
O376       Co384   1.983       .  S
O377        C390   1.271   1_655  A
O377       Co385   1.968       .  S
O378        C390   1.282       .  A
O378       Co383   2.042       .  S
O379        C389   1.246       .  A
O379       Co382   1.943       .  S
O380        C387   1.275       .  A
O380       Co385   1.937       .  S
O381        C388   1.269   1_565  A
O381       Co384   1.995       .  S
Co382       O386   2.052   1_655  S
Co383       O386   2.037   1_545  S
Co384       O386   2.072       .  S
Co385       O386   2.015   1_645  S
C387        C451   1.489   1_545  S
C388        C588   1.470       .  S
C389        C395   1.477   1_655  S
C390        C689   1.496   1_455  S
C391        C392   1.410       .  A
C391        C396   1.391       .  A
C391        H398   1.083       .  S
C392        C393   1.408       .  A
C393        C394   1.404   1_455  A
C393        N400   1.433   1_455  S
C394        C395   1.411   1_655  A
C394        H399   1.084       .  S
C395        C396   1.410       .  A
C396        N397   1.433       .  S
N397        H401   1.044       .  S
N397        H402   1.046       .  S
N400        H403   1.045       .  S
N400        H404   1.046       .  S
C405        C406   1.404       .  A
C405        C410   1.407       .  A
C405        H412   1.084       .  S
C406        C407   1.407       .  A
C407        C408   1.400       .  A
C407        N414   1.433       .  S
C408        C409   1.407       .  A
C408        H413   1.081       .  S
C409        C410   1.417       .  A
C410        N411   1.438       .  S
N411        H415   1.046       .  S
N411        H416   1.046       .  S
N414        H417   1.045       .  S
N414        H418   1.046       .  S
C419        C420   1.402       .  A
C419        C424   1.402       .  A
C419        H426   1.084       .  S
C420        C421   1.408       .  A
C421        C422   1.396       .  A
C421        N428   1.433       .  S
C422        C423   1.409       .  A
C422        H427   1.084       .  S
C423        C424   1.417       .  A
C424        N425   1.432       .  S
N425        H429   1.045       .  S
N425        H430   1.045       .  S
N428        H431   1.046       .  S
N428        H432   1.045       .  S
C433        C434   1.404       .  A
C433        C438   1.404       .  A
C433        H440   1.084       .  S
C434        C435   1.412       .  A
C435        C436   1.397       .  A
C435        N442   1.433       .  S
C436        C437   1.404       .  A
C436        H441   1.084       .  S
C437        C438   1.414       .  A
C438        N439   1.432       .  S
N439        H443   1.045       .  S
N439        H444   1.045       .  S
N442        H445   1.044       .  S
N442        H446   1.046       .  S
C447        C448   1.409       .  A
C447        C452   1.417   1_565  A
C447        H454   1.083       .  S
C448        C449   1.410       .  A
C449        C450   1.394       .  A
C449        N456   1.434       .  S
C450        C451   1.406       .  A
C450        H455   1.084       .  S
C451        C452   1.415   1_565  A
C452        N453   1.436       .  S
N453        H457   1.045       .  S
N453        H458   1.046       .  S
N456        H459   1.046       .  S
N456        H460   1.046       .  S
C461        C462   1.402       .  A
C461        C466   1.399       .  A
C461        H468   1.084       .  S
C462        C463   1.407       .  A
C463        C464   1.403       .  A
C463        N470   1.432       .  S
C464        C465   1.404       .  A
C464        H469   1.084       .  S
C465        C466   1.414       .  A
C466        N467   1.432       .  S
N467        H471   1.044       .  S
N467        H472   1.046       .  S
N470        H473   1.046       .  S
N470        H474   1.046       .  S
C475        C476   1.402       .  A
C475        C480   1.399       .  A
C475        H482   1.084       .  S
C476        C477   1.410       .  A
C477        C478   1.405       .  A
C477        N484   1.438       .  S
C478        C479   1.403       .  A
C478        H483   1.084       .  S
C479        C480   1.414       .  A
C480        N481   1.433       .  S
N481        H485   1.045       .  S
N481        H486   1.046       .  S
N484        H487   1.046       .  S
N484        H488   1.046       .  S
C489        C490   1.409       .  A
C489        C494   1.401       .  A
C489        H496   1.083       .  S
C490        C491   1.418       .  A
C491        C492   1.403       .  A
C491        N498   1.432       .  S
C492        C493   1.398       .  A
C492        H497   1.084       .  S
C493        C494   1.410       .  A
C494        N495   1.432       .  S
N495        H499   1.045       .  S
N495        H500   1.045       .  S
N498        H501   1.046       .  S
N498        H502   1.046       .  S
C503        C504   1.404   1_565  A
C503        C508   1.411       .  A
C503        H510   1.082       .  S
C504        C505   1.421       .  A
C505        C506   1.386       .  A
C505        N512   1.432       .  S
C506        C507   1.386   1_545  A
C506        H511   1.085       .  S
C507        C508   1.421       .  A
C508        N509   1.438       .  S
N509        H513   1.047       .  S
N509        H514   1.045       .  S
N512        H515   1.046       .  S
N512        H516   1.046       .  S
C517        C518   1.393       .  A
C517        C522   1.394       .  A
C517        H524   1.085       .  S
C518        C519   1.406       .  A
C519        C520   1.393       .  A
C519        N526   1.432       .  S
C520        C521   1.406       .  A
C520        H525   1.083       .  S
C521        C522   1.416       .  A
C522        N523   1.433       .  S
N523        H527   1.045       .  S
N523        H528   1.045       .  S
N526        H529   1.046       .  S
N526        H530   1.045       .  S
C531        C532   1.401       .  A
C531        C536   1.390       .  A
C531        H538   1.084       .  S
C532        C533   1.407       .  A
C533        C534   1.401       .  A
C533        N540   1.432       .  S
C534        C535   1.400       .  A
C534        H539   1.084       .  S
C535        C536   1.411       .  A
C536        N537   1.433       .  S
N537        H541   1.044       .  S
N537        H542   1.046       .  S
N540        H543   1.046       .  S
N540        H544   1.045       .  S
C545        C546   1.405       .  A
C545        C550   1.399       .  A
C545        H552   1.083       .  S
C546        C547   1.418       .  A
C547        C548   1.397       .  A
C547        N554   1.433       .  S
C548        C549   1.397       .  A
C548        H553   1.084       .  S
C549        C550   1.406       .  A
C550        N551   1.432       .  S
N551        H555   1.046       .  S
N551        H556   1.045       .  S
N554        H557   1.046       .  S
N554        H558   1.046       .  S
C559        C560   1.406       .  A
C559        C564   1.395       .  A
C559        H566   1.084       .  S
C560        C561   1.411       .  A
C561        C562   1.403       .  A
C561        N568   1.432       .  S
C562        C563   1.401       .  A
C562        H567   1.084       .  S
C563        C564   1.408       .  A
C564        N565   1.433       .  S
N565        H569   1.045       .  S
N565        H570   1.045       .  S
N568        H571   1.045       .  S
N568        H572   1.046       .  S
C573        C574   1.407       .  A
C573        C578   1.401       .  A
C573        H580   1.084       .  S
C574        C575   1.414       .  A
C575        C576   1.394       .  A
C575        N582   1.433       .  S
C576        C577   1.399       .  A
C576        H581   1.085       .  S
C577        C578   1.417       .  A
C578        N579   1.440       .  S
N579        H583   1.047       .  S
N579        H584   1.041       .  S
N582        H585   1.046       .  S
N582        H586   1.045       .  S
C587        C588   1.404       .  A
C587        C592   1.410       .  A
C587        H594   1.084   1_545  S
C588        C589   1.404       .  A
C589        C590   1.404       .  A
C589        N596   1.437       .  S
C590        C591   1.410       .  A
C590        H595   1.083       .  S
C591        C592   1.414       .  A
C592        N593   1.437       .  S
N593        H597   1.046       .  S
N593        H598   1.045   1_545  S
N596        H599   1.046       .  S
N596        H600   1.045       .  S
C601        C602   1.407       .  A
C601        C606   1.408       .  A
C601        H608   1.083       .  S
C602        C603   1.410       .  A
C603        C604   1.395       .  A
C603        N610   1.433       .  S
C604        C605   1.404       .  A
C604        H609   1.083       .  S
C605        C606   1.413       .  A
C606        N607   1.438       .  S
N607        H611   1.044       .  S
N607        H612   1.047       .  S
N610        H613   1.046       .  S
N610        H614   1.045       .  S
C615        C616   1.396       .  A
C615        C620   1.402       .  A
C615        H622   1.085       .  S
C616        C617   1.415       .  A
C617        C618   1.400       .  A
C617        N624   1.432   1_655  S
C618        C619   1.401       .  A
C618        H623   1.084       .  S
C619        C620   1.419       .  A
C620        N621   1.439       .  S
N621        H625   1.045       .  S
N621        H626   1.046       .  S
N624        H627   1.046       .  S
N624        H628   1.043       .  S
C629        C630   1.401   1_655  A
C629        C634   1.398       .  A
C629        H636   1.084       .  S
C630        C631   1.418       .  A
C631        C632   1.420   1_455  A
C631        N638   1.437       .  S
C632        C633   1.409       .  A
C632        H637   1.083   1_655  S
C633        C634   1.419       .  A
C634        N635   1.434       .  S
N635        H639   1.047       .  S
N635        H640   1.045       .  S
N638        H641   1.044       .  S
N638        H642   1.048       .  S
C643        C644   1.401       .  A
C643        C648   1.391       .  A
C643        H650   1.084       .  S
C644        C645   1.412   1_455  A
C645        C646   1.413   1_655  A
C645        N652   1.432       .  S
C646        C647   1.408       .  A
C646        H651   1.083   1_455  S
C647        C648   1.415       .  A
C648        N649   1.434       .  S
N649        H653   1.046       .  S
N649        H654   1.046       .  S
N652        H655   1.043       .  S
N652        H656   1.046       .  S
C657        C658   1.402       .  A
C657        C662   1.395       .  A
C657        H664   1.084       .  S
C658        C659   1.424   1_554  A
C659        C660   1.410   1_556  A
C659        N666   1.433       .  S
C660        C661   1.409       .  A
C660        H665   1.083   1_554  S
C661        C662   1.426       .  A
C662        N663   1.431       .  S
N663        H667   1.045       .  S
N663        H668   1.045       .  S
N666        H669   1.046       .  S
N666        H670   1.040       .  S
C671        C672   1.409   1_556  A
C671        C676   1.413   1_556  A
C671        H678   1.084       .  S
C672        C673   1.421       .  A
C673        C674   1.408       .  A
C673        N680   1.439       .  S
C674        C675   1.407       .  A
C674        H679   1.083       .  S
C675        C676   1.411       .  A
C676        N677   1.427   1_554  S
N677        H681   1.046       .  S
N677        H682   1.041       .  S
N680        H683   1.045       .  S
N680        H684   1.046       .  S
C685        C686   1.412       .  A
C685        C690   1.404       .  A
C685        H692   1.083       .  S
C686        C687   1.412       .  A
C687        C688   1.412   1_655  A
C687        N694   1.431   1_655  S
C688        C689   1.409   1_455  A
C688        H693   1.083       .  S
C689        C690   1.410       .  A
C690        N691   1.432       .  S
N691        H695   1.045       .  S
N691        H696   1.046       .  S
N694        H697   1.048       .  S
N694        H698   1.044       .  S
C699        C700   1.406       .  A
C699        C704   1.398       .  A
C699        H706   1.084       .  S
C700        C701   1.411       .  A
C701        C702   1.402       .  A
C701        N708   1.431       .  S
C702        C703   1.399       .  A
C702        H707   1.084       .  S
C703        C704   1.409       .  A
C704        N705   1.433       .  S
N705        H709   1.046       .  S
N705        H710   1.045       .  S
N708        H711   1.045       .  S
N708        H712   1.046       .  S
C713        C714   1.410       .  A
C713        C718   1.401       .  A
C713        H720   1.083       .  S
C714        C715   1.419       .  A
C715        C716   1.403       .  A
C715        N722   1.432       .  S
C716        C717   1.399       .  A
C716        H721   1.084       .  S
C717        C718   1.411       .  A
C718        N719   1.433       .  S
N719        H723   1.045       .  S
N719        H724   1.044       .  S
N722        H725   1.046       .  S
N722        H726   1.046       .  S
C727        C728   1.409       .  A
C727        C732   1.404       .  A
C727        H734   1.083       .  S
C728        C729   1.419       .  A
C729        C730   1.403       .  A
C729        N736   1.438       .  S
C730        C731   1.397       .  A
C730        H735   1.084       .  S
C731        C732   1.406       .  A
C732        N733   1.438       .  S
N733        H737   1.044       .  S
N733        H738   1.047       .  S
N736        H739   1.044       .  S
N736        H740   1.048       .  S
C741        C742   1.398       .  A
C741        C746   1.398       .  A
C741        H748   1.084       .  S
C742        C743   1.408       .  A
C743        C744   1.411       .  A
C743        N750   1.437   1_455  S
C744        C745   1.410       .  A
C744        H749   1.083       .  S
C745        C746   1.424       .  A
C746        N747   1.433       .  S
N747        H751   1.044       .  S
N747        H752   1.045       .  S
N750        H753   1.046       .  S
N750        H754   1.045       .  S
C755        C756   1.411       .  A
C755        C760   1.397       .  A
C755        H762   1.081       .  S
C756        C757   1.419       .  A
C757        C758   1.404       .  A
C757        N764   1.430       .  S
C758        C759   1.405       .  A
C758        H763   1.085   1_565  S
C759        C760   1.406       .  A
C760        N761   1.432       .  S
N761        H765   1.043       .  S
N761        H766   1.046       .  S
N764        H767   1.042       .  S
N764        H768   1.045       .  S
C769        C770   1.400       .  A
C769        C774   1.398       .  A
C769        H776   1.084       .  S
C770        C771   1.410       .  A
C771        C772   1.402       .  A
C771        N778   1.439       .  S
C772        C773   1.406       .  A
C772        H777   1.083       .  S
C773        C774   1.422       .  A
C774        N775   1.433       .  S
N775        H779   1.044       .  S
N775        H780   1.045       .  S
N778        H781   1.046       .  S
N778        H782   1.045       .  S
C783        C784   1.403       .  A
C783        C788   1.395       .  A
C783        H790   1.084       .  S
C784        C785   1.409       .  A
C785        C786   1.404       .  A
C785        N792   1.432       .  S
C786        C787   1.408       .  A
C786        H791   1.084       .  S
C787        C788   1.419       .  A
C788        N789   1.432       .  S
N789        H793   1.044       .  S
N789        H794   1.045       .  S
N792        H795   1.046       .  S
N792        H796   1.046       .  S
C797        C798   1.398       .  A
C797        C802   1.396       .  A
C797        H804   1.084       .  S
C798        C799   1.410       .  A
C799        C800   1.406       .  A
C799        N806   1.438       .  S
C800        C801   1.404       .  A
C800        H805   1.084       .  S
C801        C802   1.418       .  A
C802        N803   1.433       .  S
N803        H807   1.044       .  S
N803        H808   1.045       .  S
N806        H809   1.047       .  S
N806        H810   1.044       .  S
C811        C812   1.402       .  A
C811        C816   1.396       .  A
C811        H818   1.084       .  S
C812        C813   1.415   1_554  A
C813        C814   1.413   1_556  A
C813        N820   1.431       .  S
C814        C815   1.408       .  A
C814        H819   1.084   1_554  S
C815        C816   1.427       .  A
C816        N817   1.433       .  S
N817        H821   1.044       .  S
N817        H822   1.046       .  S
N820        H823   1.044       .  S
N820        H824   1.045       .  S
C825        C826   1.402   1_556  A
C825        C830   1.399       .  A
C825        H832   1.084       .  S
C826        C827   1.416       .  A
C827        C828   1.412   1_554  A
C827        N834   1.437       .  S
C828        C829   1.410       .  A
C828        H833   1.083   1_556  S
C829        C830   1.424       .  A
C830        N831   1.433       .  S
N831        H835   1.045       .  S
N831        H836   1.045       .  S
N834        H837   1.046       .  S
N834        H838   1.045       .  S
C839        C840   1.401   1_545  A
C839        C844   1.395       .  A
C839        H846   1.085       .  S
C840        C841   1.414       .  A
C841        C842   1.419   1_565  A
C841        N848   1.437       .  S
C842        C843   1.414       .  A
C842        H847   1.083   1_545  S
C843        C844   1.426       .  A
C844        N845   1.432       .  S
N845        H849   1.042       .  S
N845        H850   1.047       .  S
N848        H851   1.043       .  S
N848        H852   1.046       .  S
C853        C854   1.403   1_565  A
C853        C858   1.399       .  A
C853        H860   1.085       .  S
C854        C855   1.416       .  A
C855        C856   1.413   1_545  A
C855        N862   1.432       .  S
C856        C857   1.414       .  A
C856        H861   1.083   1_565  S
C857        C858   1.425       .  A
C858        N859   1.432       .  S
N859        H863   1.046       .  S
N859        H864   1.044       .  S
N862        H865   1.046       .  S
N862        H866   1.044       .  S
C867        C868   1.406       .  A
C867        C872   1.401       .  A
C867        H874   1.084       .  S
C868        C869   1.424   1_554  A
C869        C870   1.405   1_556  A
C869        N876   1.433       .  S
C870        C871   1.407       .  A
C870        H875   1.084       .  S
C871        C872   1.417       .  A
C872        N873   1.433       .  S
N873        H877   1.045       .  S
N873        H878   1.046       .  S
N876        H879   1.043       .  S
N876        H880   1.044       .  S
C881        C882   1.404   1_556  A
C881        C886   1.404       .  A
C881        H888   1.084       .  S
C882        C883   1.420       .  A
C883        C884   1.408       .  A
C883        N890   1.432       .  S
C884        C885   1.408   1_554  A
C884        H889   1.083       .  S
C885        C886   1.421       .  A
C886        N887   1.439       .  S
N887        H891   1.047       .  S
N887        H892   1.045       .  S
N890        H893   1.044       .  S
N890        H894   1.041       .  S
C895        C896   1.410       .  A
C895        C900   1.420   1_455  A
C895        H902   1.083   1_455  S
C896        C897   1.417       .  A
C897        C898   1.401       .  A
C897        N904   1.433       .  S
C898        C899   1.404       .  A
C898        H903   1.084       .  S
C899        C900   1.417   1_455  A
C900        N901   1.437       .  S
N901        H905   1.046       .  S
N901        H906   1.045       .  S
N904        H907   1.046       .  S
N904        H908   1.046       .  S
C909        C910   1.412       .  A
C909        C914   1.401       .  A
C909        H916   1.083       .  S
C910        C911   1.414       .  A
C911        C912   1.414       .  A
C911        N918   1.436   1_545  S
C912        C913   1.407       .  A
C912        H917   1.084   1_545  S
C913        C914   1.407       .  A
C914        N915   1.432       .  S
N915        H919   1.044       .  S
N915        H920   1.044       .  S
N918        H921   1.047       .  S
N918        H922   1.044       .  S
C923        C924   1.404       .  A
C923        C928   1.399       .  A
C923        H930   1.084       .  S
C924        C925   1.422   1_556  A
C925        C926   1.414   1_554  A
C925        N932   1.432       .  S
C926        C927   1.411       .  A
C926        H931   1.082   1_556  S
C927        C928   1.419       .  A
C928        N929   1.433       .  S
N929        H933   1.046       .  S
N929        H934   1.046       .  S
N932        H935   1.047       .  S
N932        H936   1.042       .  S
C937        C938   1.409       .  A
C937        C942   1.398       .  A
C937        H944   1.083       .  S
C938        C939   1.415       .  A
C939        C940   1.406       .  A
C939        N946   1.432       .  S
C940        C941   1.401       .  A
C940        H945   1.084       .  S
C941        C942   1.409       .  A
C942        N943   1.433       .  S
N943        H947   1.046       .  S
N943        H948   1.045       .  S
N946        H949   1.046       .  S
N946        H950   1.045       .  S
C951        C952   1.404       .  A
C951        C956   1.403       .  A
C951        H958   1.084       .  S
C952        C953   1.408       .  A
C953        C954   1.402       .  A
C953        N960   1.433       .  S
C954        C955   1.410       .  A
C954        H959   1.083       .  S
C955        C956   1.423       .  A
C956        N957   1.431       .  S
N957        H961   1.045       .  S
N957        H962   1.045       .  S
N960        H963   1.045       .  S
N960        H964   1.046       .  S
C965        C966   1.411       .  A
C965        C970   1.407       .  A
C965        H972   1.081       .  S
C966        C967   1.423       .  A
C967        C968   1.401       .  A
C967        N974   1.431       .  S
C968        C969   1.403       .  A
C968        H973   1.084       .  S
C969        C970   1.411       .  A
C970        N971   1.438       .  S
N971        H975   1.046       .  S
N971        H976   1.045       .  S
N974        H977   1.044       .  S
N974        H978   1.045       .  S
C979        C980   1.409       .  A
C979        C984   1.420   1_556  A
C979        H986   1.083       .  S
C980        C981   1.417       .  A
C981        C982   1.398       .  A
C981        N988   1.434       .  S
C982        C983   1.403       .  A
C982        H987   1.084       .  S
C983        C984   1.418   1_556  A
C984        N985   1.437       .  S
N985        H989   1.045       .  S
N985        H990   1.046       .  S
N988        H991   1.045       .  S
N988        H992   1.046       .  S
C993        C994   1.408       .  A
C993        C998   1.400       .  A
C993       H1000   1.083       .  S
C994        C995   1.414       .  A
C995        C996   1.410   1_655  A
C995       N1002   1.431   1_655  S
C996        C997   1.405       .  A
C996       H1001   1.083       .  S
C997        C998   1.422   1_455  A
C998        N999   1.434       .  S
N999       H1003   1.039       .  S
N999       H1004   1.049       .  S
N1002      H1005   1.044       .  S
N1002      H1006   1.046       .  S
C1007      C1008   1.403       .  A
C1007      C1012   1.404       .  A
C1007      H1014   1.084       .  S
C1008      C1009   1.410       .  A
C1009      C1010   1.398       .  A
C1009      N1016   1.433       .  S
C1010      C1011   1.412       .  A
C1010      H1015   1.083       .  S
C1011      C1012   1.422       .  A
C1012      N1013   1.431       .  S
N1013      H1017   1.044       .  S
N1013      H1018   1.046       .  S
N1016      H1019   1.046       .  S
N1016      H1020   1.044       .  S
C1021      C1022   1.402       .  A
C1021      C1026   1.403       .  A
C1021      H1028   1.084       .  S
C1022      C1023   1.405       .  A
C1023      C1024   1.393       .  A
C1023      N1030   1.433       .  S
C1024      C1025   1.410       .  A
C1024      H1029   1.084       .  S
C1025      C1026   1.420       .  A
C1026      N1027   1.432       .  S
N1027      H1031   1.044       .  S
N1027      H1032   1.045       .  S
N1030      H1033   1.045       .  S
N1030      H1034   1.045       .  S
C1035      C1036   1.409       .  A
C1035      C1040   1.399       .  A
C1035      H1042   1.084       .  S
C1036      C1037   1.408       .  A
C1037      C1038   1.411       .  A
C1037      N1044   1.431       .  S
C1038      C1039   1.408       .  A
C1038      H1043   1.084   1_565  S
C1039      C1040   1.400       .  A
C1040      N1041   1.432       .  S
N1041      H1045   1.045       .  S
N1041      H1046   1.045       .  S
N1044      H1047   1.045   1_565  S
N1044      H1048   1.044   1_565  S
C1049      C1050   1.395       .  A
C1049      C1054   1.395       .  A
C1049      H1056   1.084       .  S
C1050      C1051   1.410       .  A
C1051      C1052   1.402       .  A
C1051      N1058   1.432       .  S
C1052      C1053   1.406       .  A
C1052      H1057   1.084       .  S
C1053      C1054   1.425       .  A
C1054      N1055   1.434       .  S
N1055      H1059   1.045       .  S
N1055      H1060   1.045       .  S
N1058      H1061   1.045       .  S
N1058      H1062   1.046       .  S
C1063      C1064   1.411       .  A
C1063      C1068   1.401       .  A
C1063      H1070   1.083       .  S
C1064      C1065   1.413       .  A
C1065      C1066   1.409       .  A
C1065      N1072   1.438       .  S
C1066      C1067   1.406       .  A
C1066      H1071   1.084       .  S
C1067      C1068   1.399       .  A
C1068      N1069   1.432       .  S
N1069      H1073   1.045       .  S
N1069      H1074   1.046       .  S
N1072      H1075   1.045       .  S
N1072      H1076   1.046       .  S
C1077      C1078   1.406       .  A
C1077      C1082   1.407       .  A
C1077      H1084   1.084       .  S
C1078      C1079   1.401       .  A
C1079      C1080   1.401       .  A
C1079      N1086   1.438       .  S
C1080      C1081   1.410       .  A
C1080      H1085   1.084       .  S
C1081      C1082   1.408       .  A
C1082      N1083   1.437       .  S
N1083      H1087   1.046       .  S
N1083      H1088   1.045       .  S
N1086      H1089   1.046       .  S
N1086      H1090   1.045       .  S
C1091      C1092   1.412       .  A
C1091      C1096   1.400       .  A
C1091      H1098   1.082       .  S
C1092      C1093   1.420       .  A
C1093      C1094   1.410       .  A
C1093      N1100   1.430       .  S
C1094      C1095   1.412       .  A
C1094      H1099   1.084       .  S
C1095      C1096   1.418       .  A
C1096      N1097   1.433       .  S
N1097      H1101   1.045       .  S
N1097      H1102   1.045       .  S
N1100      H1103   1.041       .  S
N1100      H1104   1.045       .  S
C1105      C1106   1.406       .  A
C1105      C1110   1.404       .  A
C1105      H1112   1.082       .  S
C1106      C1107   1.414       .  A
C1107      C1108   1.415       .  A
C1107      N1114   1.433       .  S
C1108      C1109   1.408       .  A
C1108      H1113   1.083       .  S
C1109      C1110   1.416       .  A
C1110      N1111   1.433       .  S
N1111      H1115   1.045       .  S
N1111      H1116   1.046       .  S
N1114      H1117   1.045       .  S
N1114      H1118   1.047       .  S
C1119      C1120   1.410       .  A
C1119      C1124   1.418       .  A
C1119      H1126   1.083       .  S
C1120      C1121   1.421       .  A
C1121      C1122   1.399       .  A
C1121      N1128   1.433       .  S
C1122      C1123   1.398       .  A
C1122      H1127   1.085       .  S
C1123      C1124   1.417       .  A
C1124      N1125   1.438       .  S
N1125      H1129   1.044       .  S
N1125      H1130   1.045       .  S
N1128      H1131   1.046       .  S
N1128      H1132   1.045       .  S
C1133      C1134   1.398       .  A
C1133      C1138   1.396       .  A
C1133      H1140   1.084       .  S
C1134      C1135   1.415       .  A
C1135      C1136   1.411       .  A
C1135      N1142   1.437       .  S
C1136      C1137   1.405       .  A
C1136      H1141   1.084       .  S
C1137      C1138   1.418       .  A
C1138      N1139   1.433       .  S
N1139      H1143   1.046       .  S
N1139      H1144   1.045       .  S
N1142      H1145   1.045       .  S
N1142      H1146   1.046       .  S
C1147      C1148   1.410       .  A
C1147      C1152   1.404       .  A
C1147      H1154   1.083       .  S
C1148      C1149   1.409       .  A
C1149      C1150   1.408       .  A
C1149      N1156   1.438       .  S
C1150      C1151   1.415       .  A
C1150      H1155   1.082       .  S
C1151      C1152   1.420       .  A
C1152      N1153   1.431       .  S
N1153      H1157   1.044       .  S
N1153      H1158   1.045       .  S
N1156      H1159   1.045       .  S
N1156      H1160   1.046       .  S
C1161      C1162   1.406       .  A
C1161      C1166   1.404       .  A
C1161      H1168   1.083       .  S
C1162      C1163   1.413       .  A
C1163      C1164   1.415       .  A
C1163      N1170   1.431       .  S
C1164      C1165   1.407       .  A
C1164      H1169   1.083       .  S
C1165      C1166   1.413       .  A
C1166      N1167   1.438       .  S
N1167      H1171   1.044       .  S
N1167      H1172   1.047       .  S
N1170      H1173   1.046       .  S
N1170      H1174   1.045       .  S
C1175      C1176   1.409       .  A
C1175      C1180   1.392       .  A
C1175      H1182   1.083       .  S
C1176      C1177   1.413       .  A
C1177      C1178   1.412       .  A
C1177      N1184   1.437       .  S
C1178      C1179   1.408       .  A
C1178      H1183   1.084       .  S
C1179      C1180   1.404       .  A
C1180      N1181   1.434       .  S
N1181      H1185   1.046       .  S
N1181      H1186   1.046       .  S
N1184      H1187   1.047       .  S
N1184      H1188   1.044       .  S
C1189      C1190   1.411       .  A
C1189      C1194   1.416       .  A
C1189      H1196   1.083       .  S
C1190      C1191   1.410       .  A
C1191      C1192   1.404       .  A
C1191      N1198   1.439       .  S
C1192      C1193   1.411       .  A
C1192      H1197   1.082       .  S
C1193      C1194   1.413       .  A
C1194      N1195   1.432       .  S
N1195      H1199   1.044       .  S
N1195      H1200   1.044       .  S
N1198      H1201   1.046       .  S
N1198      H1202   1.045       .  S
C1203      C1204   1.404       .  A
C1203      C1208   1.402       .  A
C1203      H1210   1.084       .  S
C1204      C1205   1.407       .  A
C1205      C1206   1.398       .  A
C1205      N1212   1.432       .  S
C1206      C1207   1.410       .  A
C1206      H1211   1.084       .  S
C1207      C1208   1.416       .  A
C1208      N1209   1.432       .  S
N1209      H1213   1.044       .  S
N1209      H1214   1.045       .  S
N1212      H1215   1.044       .  S
N1212      H1216   1.046       .  S
C1217      C1218   1.404       .  A
C1217      C1222   1.406       .  A
C1217      H1224   1.085       .  S
C1218      C1219   1.411       .  A
C1219      C1220   1.405       .  A
C1219      N1226   1.438       .  S
C1220      C1221   1.413       .  A
C1220      H1225   1.083       .  S
C1221      C1222   1.414       .  A
C1222      N1223   1.432       .  S
N1223      H1227   1.045       .  S
N1223      H1228   1.045       .  S
N1226      H1229   1.045       .  S
N1226      H1230   1.044       .  S
C1231      C1232   1.407       .  A
C1231      C1236   1.414       .  A
C1231      H1238   1.083       .  S
C1232      C1233   1.409       .  A
C1233      C1234   1.403       .  A
C1233      N1240   1.433       .  S
C1234      C1235   1.412       .  A
C1234      H1239   1.083       .  S
C1235      C1236   1.415       .  A
C1236      N1237   1.430       .  S
N1237      H1241   1.043       .  S
N1237      H1242   1.045       .  S
N1240      H1243   1.046       .  S
N1240      H1244   1.046       .  S
C1245      C1246   1.407       .  A
C1245      C1250   1.420       .  A
C1245      H1252   1.082       .  S
C1246      C1247   1.419       .  A
C1247      C1248   1.399       .  A
C1247      N1254   1.433       .  S
C1248      C1249   1.403       .  A
C1248      H1253   1.084       .  S
C1249      C1250   1.418       .  A
C1250      N1251   1.437       .  S
N1251      H1255   1.046       .  S
N1251      H1256   1.045       .  S
N1254      H1257   1.046       .  S
N1254      H1258   1.045       .  S
C1259      C1260   1.408       .  A
C1259      C1264   1.411       .  A
C1259      H1266   1.084       .  S
C1260      C1261   1.410       .  A
C1261      C1262   1.403       .  A
C1261      N1268   1.439       .  S
C1262      C1263   1.414       .  A
C1262      H1267   1.082       .  S
C1263      C1264   1.414       .  A
C1264      N1265   1.431       .  S
N1265      H1269   1.048       .  S
N1265      H1270   1.037       .  S
N1268      H1271   1.046       .  S
N1268      H1272   1.045       .  S
C1273      C1274   1.403       .  A
C1273      C1278   1.399       .  A
C1273      H1280   1.083       .  S
C1274      C1275   1.412       .  A
C1275      C1276   1.416       .  A
C1275      N1282   1.432       .  S
C1276      C1277   1.408       .  A
C1276      H1281   1.083       .  S
C1277      C1278   1.416       .  A
C1278      N1279   1.433       .  S
N1279      H1283   1.045       .  S
N1279      H1284   1.046       .  S
N1282      H1285   1.046       .  S
N1282      H1286   1.045       .  S
C1287      C1288   1.409       .  A
C1287      C1292   1.400       .  A
C1287      H1294   1.081       .  S
C1288      C1289   1.416       .  A
C1289      C1290   1.418       .  A
C1289      N1296   1.430       .  S
C1290      C1291   1.409       .  A
C1290      H1295   1.084       .  S
C1291      C1292   1.417       .  A
C1292      N1293   1.434       .  S
N1293      H1297   1.043       .  S
N1293      H1298   1.045       .  S
N1296      H1299   1.044       .  S
N1296      H1300   1.044       .  S
C1301      C1302   1.406       .  A
C1301      C1306   1.417       .  A
C1301      H1308   1.083       .  S
C1302      C1303   1.415       .  A
C1303      C1304   1.405       .  A
C1303      N1310   1.439       .  S
C1304      C1305   1.407       .  A
C1304      H1309   1.083       .  S
C1305      C1306   1.419       .  A
C1306      N1307   1.436       .  S
N1307      H1311   1.045       .  S
N1307      H1312   1.046       .  S
N1310      H1313   1.045       .  S
N1310      H1314   1.046       .  S
C1315      C1316   1.405       .  A
C1315      C1320   1.394       .  A
C1315      H1322   1.084       .  S
C1316      C1317   1.419       .  A
C1317      C1318   1.407       .  A
C1317      N1324   1.432       .  S
C1318      C1319   1.408       .  A
C1318      H1323   1.084       .  S
C1319      C1320   1.422       .  A
C1320      N1321   1.434       .  S
N1321      H1325   1.045       .  S
N1321      H1326   1.044       .  S
N1324      H1327   1.040       .  S
N1324      H1328   1.046       .  S
C1329      C1330   1.407       .  A
C1329      C1334   1.408       .  A
C1329      H1336   1.084       .  S
C1330      C1331   1.420       .  A
C1331      C1332   1.398       .  A
C1331      N1338   1.434       .  S
C1332      C1333   1.407       .  A
C1332      H1337   1.083       .  S
C1333      C1334   1.411       .  A
C1334      N1335   1.428       .  S
N1335      H1339   1.048       .  S
N1335      H1340   1.039       .  S
N1338      H1341   1.043       .  S
N1338      H1342   1.047       .  S
C1343      C1344   1.399       .  A
C1343      C1348   1.399       .  A
C1343      H1350   1.084       .  S
C1344      C1345   1.414       .  A
C1345      C1346   1.403       .  A
C1345      N1352   1.432       .  S
C1346      C1347   1.404       .  A
C1346      H1351   1.084       .  S
C1347      C1348   1.423       .  A
C1348      N1349   1.433       .  S
N1349      H1353   1.045       .  S
N1349      H1354   1.045       .  S
N1352      H1355   1.046       .  S
N1352      H1356   1.042       .  S
C1357      C1358   1.407       .  A
C1357      C1362   1.407       .  A
C1357      H1364   1.085       .  S
C1358      C1359   1.410       .  A
C1359      C1360   1.404       .  A
C1359      N1366   1.439       .  S
C1360      C1361   1.414       .  A
C1360      H1365   1.083       .  S
C1361      C1362   1.410       .  A
C1362      N1363   1.432       .  S
N1363      H1367   1.046       .  S
N1363      H1368   1.046       .  S
N1366      H1369   1.045       .  S
N1366      H1370   1.045       .  S
C1371      C1372   1.403       .  A
C1371      C1376   1.403       .  A
C1371      H1378   1.082       .  S
C1372      C1373   1.420       .  A
C1373      C1374   1.398       .  A
C1373      N1380   1.433       .  S
C1374      C1375   1.402       .  A
C1374      H1379   1.084       .  S
C1375      C1376   1.424       .  A
C1376      N1377   1.433       .  S
N1377      H1381   1.044   1_545  S
N1377      H1382   1.044       .  S
N1380      H1383   1.046       .  S
N1380      H1384   1.045       .  S
C1385      C1386   1.407       .  A
C1385      C1390   1.404       .  A
C1385      H1392   1.084       .  S
C1386      C1387   1.411       .  A
C1387      C1388   1.405       .  A
C1387      N1394   1.438       .  S
C1388      C1389   1.410       .  A
C1388      H1393   1.083       .  S
C1389      C1390   1.421       .  A
C1390      N1391   1.432       .  S
N1391      H1395   1.043       .  S
N1391      H1396   1.045       .  S
N1394      H1397   1.049       .  S
N1394      H1398   1.042       .  S
