geometry optimzed in LAMMPS
_audit_creation_date              2020-11-30 
_audit_creation_method            'lammps2cif' 
_symmetry_space_group_name_H-M    'P1' 
_symmetry_Int_Tables_number       1 
_symmetry_cell_setting            triclinic 
loop_ 
_symmetry_equiv_pos_as_xyz 
  x,y,z 
_cell_length_a                    37.51806001 
_cell_length_b                    37.513332182745046 
_cell_length_c                    37.52032106198648 
_cell_angle_alpha                 89.95640859710073 
_cell_angle_beta                  90.02595180441327 
_cell_angle_gamma                 89.98184732768922 
loop_ 
_atom_site_label 
_atom_site_type_symbol 
_atom_site_fract_x 
_atom_site_fract_y 
_atom_site_fract_z 
_atom_site_charge 
O1          O  0.30512564  0.69398580  0.74955447    -0.77500
O2          O  0.30497064  0.79962632  0.75046094    -0.77500
O3          O  0.26085732  0.71771081  0.67193243    -0.77500
O4          O  0.26063409  0.77574593  0.82795597    -0.77500
O5          O  0.30514035  0.74663946  0.69726542    -0.77600
O6          O  0.30507079  0.74692226  0.80278763    -0.77500
O7          O  0.26051936  0.82464998  0.77936915    -0.77500
O8          O  0.26081706  0.66882379  0.72052777    -0.77600
C9          C  0.29362856  0.67009512  0.72873732     1.12200
C10         C  0.29334674  0.82349240  0.77124324     1.12100
C11         C  0.29366856  0.72587522  0.67330732     1.12200
C12         C  0.29347845  0.76768209  0.82669329     1.12100
O13         O  0.23766088  0.71721281  0.82783033    -0.77500
O14         O  0.23769948  0.77618937  0.67199014    -0.77600
O15         O  0.19328972  0.69389842  0.75000498    -0.77500
O16         O  0.19313582  0.79943645  0.74969304    -0.77500
O17         O  0.23747830  0.82475521  0.72084125    -0.77600
O18         O  0.23764230  0.66865741  0.77897580    -0.77500
O19         O  0.19324197  0.74613748  0.80267191    -0.77500
O20         O  0.19330730  0.74716013  0.69699429    -0.77600
Co21       Co  0.27121585  0.71012999  0.78636034     1.51500
Co22       Co  0.27116628  0.78336120  0.71356230     1.51700
Co23       Co  0.22721418  0.71031737  0.71330331     1.51600
Co24       Co  0.22704665  0.78306850  0.78648444     1.51500
O25         O  0.24915725  0.74672038  0.74992766    -1.39500
C26         C  0.20482930  0.72531248  0.82655775     1.12100
C27         C  0.20488057  0.76804053  0.67316250     1.12200
C28         C  0.20482238  0.66994152  0.77078002     1.12100
C29         C  0.20465769  0.82344342  0.72898417     1.12100
O30         O  0.74940908  0.19104633  0.69727971    -0.77500
O31         O  0.74890706  0.19094219  0.80286800    -0.77500
O32         O  0.82704711  0.23551399  0.72075989    -0.77500
O33         O  0.67116035  0.23531989  0.77937209    -0.77500
O34         O  0.80197296  0.19106983  0.74969270    -0.77600
O35         O  0.69633238  0.19096730  0.75043106    -0.77500
O36         O  0.71995146  0.23529016  0.82804743    -0.77500
O37         O  0.77825608  0.23548079  0.67209175    -0.77600
C38         C  0.77017494  0.20264084  0.67337001     1.12200
C39         C  0.72810464  0.20246516  0.82677241     1.12100
C40         C  0.82585166  0.20267796  0.72890271     1.12200
C41         C  0.67242338  0.20250033  0.77121923     1.12100
O42         O  0.67108213  0.25845733  0.72088588    -0.77500
O43         O  0.82706900  0.25854257  0.77925278    -0.77600
O44         O  0.74861801  0.30289449  0.69727838    -0.77500
O45         O  0.74943200  0.30279277  0.80287651    -0.77500
O46         O  0.77842212  0.25840099  0.82802167    -0.77600
O47         O  0.71973407  0.25849516  0.67212452    -0.77500
O48         O  0.69626376  0.30282012  0.74980593    -0.77500
O49         O  0.80179440  0.30292010  0.75034220    -0.77600
Co50       Co  0.71257356  0.22489392  0.71360916     1.51500
Co51       Co  0.78565865  0.22489183  0.78652933     1.51700
Co52       Co  0.78550272  0.26903915  0.71355063     1.51600
Co53       Co  0.71262607  0.26890454  0.78659436     1.51500
O54         O  0.74909052  0.24692682  0.75007166    -1.39500
C55         C  0.67235102  0.29128337  0.72901403     1.12100
C56         C  0.82574170  0.29137819  0.77111784     1.12200
C57         C  0.72781102  0.29133390  0.67339109     1.12100
C58         C  0.77027016  0.29122731  0.82675884     1.12100
O59         O  0.69606777  0.74692177  0.19449294    -0.77500
O60         O  0.80168261  0.74641126  0.19407995    -0.77500
O61         O  0.71974516  0.82455330  0.23885518    -0.77500
O62         O  0.77844767  0.66864786  0.23848049    -0.77500
O63         O  0.74850981  0.79948589  0.19434212    -0.77600
O64         O  0.74927003  0.69386635  0.19425413    -0.77500
O65         O  0.82710168  0.71743399  0.23832505    -0.77500
O66         O  0.67108171  0.77577760  0.23899265    -0.77600
C67         C  0.67219079  0.76768795  0.20615807     1.12200
C68         C  0.82567484  0.72563108  0.20551881     1.12100
C69         C  0.72776269  0.82337525  0.20600636     1.12200
C70         C  0.77012816  0.66994387  0.20569651     1.12100
O71         O  0.72006696  0.66856336  0.26183664    -0.77500
O72         O  0.77834595  0.82456997  0.26170266    -0.77600
O73         O  0.69664900  0.74612479  0.30631207    -0.77500
O74         O  0.80223139  0.74688020  0.30590702    -0.77500
O75         O  0.82715115  0.77590389  0.26144787    -0.77600
O76         O  0.67128256  0.71723981  0.26203603    -0.77500
O77         O  0.74917865  0.69372546  0.30608863    -0.77500
O78         O  0.74964063  0.79928014  0.30615645    -0.77600
Co79       Co  0.71260231  0.71007944  0.22829845     1.51500
Co80       Co  0.78549787  0.78315631  0.22805908     1.51700
Co81       Co  0.71271265  0.78300439  0.27240269     1.51600
Co82       Co  0.78580334  0.71009561  0.27205874     1.51500
O83         O  0.74915514  0.74658396  0.25019925    -1.39500
C84         C  0.72835815  0.66981031  0.29462716     1.12100
C85         C  0.77031978  0.82325500  0.29454810     1.12200
C86         C  0.67268492  0.72536935  0.29484667     1.12100
C87         C  0.82604185  0.76774203  0.29427602     1.12100
C88         C  0.49897894  0.97040495  0.02673044     0.04900
C89         C  0.52547119  0.99700340  0.02680728     0.04900
C90         C  0.52546827  0.02357981  0.00026456     0.04900
C91         C  0.49896555  0.02357595  0.97366313     0.04900
C92         C  0.47249630  0.99695713  0.97355674     0.04900
C93         C  0.47250025  0.97037382  0.00009485     0.04900
C94         C  0.63664221  0.02845745  0.14886692     0.05700
C95         C  0.65466380  0.99678484  0.15730687    -0.10400
C96         C  0.64644548  0.96511392  0.13922954     0.03300
C97         C  0.62004230  0.96513549  0.11283071    -0.08900
C98         C  0.60216468  0.99680358  0.10427550     0.05700
C99         C  0.61050444  0.02844904  0.12222149    -0.08300
H100        H  0.67504318  0.99679555  0.17782675     0.11300
H101        H  0.61350396  0.94064622  0.09892995     0.08900
H102        H  0.59669859  0.05296016  0.11548065     0.08700
C103        C  0.63702644  0.14523892  0.03156768     0.05700
C104        C  0.61080189  0.11870167  0.03158706    -0.10400
C105        C  0.60231738  0.10081742  0.99995272     0.03300
C106        C  0.62013291  0.10932272  0.96825833    -0.08900
C107        C  0.64663521  0.13560762  0.96820866     0.05700
C108        C  0.65499967  0.15362722  0.99987582    -0.08300
H109        H  0.59703250  0.11200201  0.05611343     0.11300
H110        H  0.61347985  0.09546423  0.94377784     0.08900
H111        H  0.67544763  0.17406608  0.99986698     0.08700
C112        C  0.35081044  0.02848722  0.86192780     0.05700
C113        C  0.37745665  0.02846057  0.88807120    -0.10400
C114        C  0.39543413  0.99680541  0.89643881     0.03300
C115        C  0.38693172  0.96515177  0.87855917    -0.08900
C116        C  0.36053450  0.96514404  0.85215303     0.05700
C117        C  0.34241899  0.99682083  0.84391920    -0.08300
H118        H  0.38413849  0.05295494  0.90189632     0.11300
H119        H  0.40083615  0.94065227  0.88513423     0.08900
H120        H  0.32187800  0.99683254  0.82356200     0.08700
C121        C  0.46750339  0.14528349  0.86197179     0.05700
C122        C  0.49918083  0.15358104  0.84393358    -0.10400
C123        C  0.53085087  0.13552663  0.85231301     0.03300
C124        C  0.53082008  0.10928495  0.87888122    -0.08900
C125        C  0.49914808  0.10086276  0.89676629     0.05700
C126        C  0.46750695  0.11879175  0.88827801    -0.08300
H127        H  0.49918050  0.17398990  0.82343566     0.11300
H128        H  0.55530649  0.09540263  0.88554335     0.08900
H129        H  0.44299592  0.11215925  0.90210177     0.08700
C130        C  0.46719102  0.85881187  0.14831598     0.05700
C131        C  0.46732742  0.88504733  0.12175913    -0.10400
C132        C  0.49905612  0.89346727  0.10399562     0.03300
C133        C  0.53068882  0.87557306  0.11265086    -0.08900
C134        C  0.53058548  0.84905783  0.13895534     0.05700
C135        C  0.49882015  0.84075522  0.15683910    -0.08300
H136        H  0.44285227  0.89888549  0.11496127     0.11300
H137        H  0.55524563  0.88218548  0.09890193     0.08900
H138        H  0.49871065  0.82030922  0.17730050     0.08700
C139        C  0.35091498  0.85877048  0.03150074     0.05700
C140        C  0.34240377  0.84087213  0.99980308    -0.10400
C141        C  0.36035608  0.84924741  0.96809117     0.03300
C142        C  0.38669204  0.87569840  0.96809592    -0.08900
C143        C  0.39532656  0.89344501  0.99978672     0.05700
C144        C  0.37751807  0.88493657  0.03147275    -0.08300
H145        H  0.32191819  0.82047176  0.99982388     0.11300
H146        H  0.40049033  0.88236686  0.94357921     0.08900
H147        H  0.38431039  0.89865753  0.05599456     0.08700
C148        C  0.02547730  0.52363828  0.99991934     0.04900
C149        C  0.02551901  0.49709191  0.97338542     0.04900
C150        C  0.99895495  0.47056238  0.97335836     0.04900
C151        C  0.97240110  0.47055092  0.99989486     0.04900
C152        C  0.97241222  0.49705606  0.02646549     0.04900
C153        C  0.99893083  0.52362019  0.02645469     0.04900
C154        C  0.13749858  0.64481486  0.96835455     0.05700
C155        C  0.15540278  0.65326106  0.00007200    -0.10400
C156        C  0.14683321  0.63543391  0.03181037     0.03300
C157        C  0.12020477  0.60928568  0.03181152    -0.08900
C158        C  0.10246907  0.60071010  0.00009540     0.05700
C159        C  0.11115292  0.61839502  0.96838168    -0.08300
H160        H  0.17593687  0.67361379  0.00005177     0.11300
H161        H  0.11339215  0.59558407  0.05635219     0.08900
H162        H  0.09743136  0.61164900  0.94383939     0.08700
C163        C  0.13713100  0.52852510  0.85170013     0.05700
C164        C  0.15510969  0.49682305  0.84334863    -0.10400
C165        C  0.14684434  0.46516745  0.86146911     0.03300
C166        C  0.12042558  0.46522659  0.88783084    -0.08900
C167        C  0.10256968  0.49691688  0.89630013     0.05700
C168        C  0.11097667  0.52855707  0.87831667    -0.08300
H169        H  0.17547932  0.49679272  0.82283675     0.11300
H170        H  0.11383039  0.44074147  0.90174064     0.08900
H171        H  0.09717923  0.55308240  0.88497284     0.08700
C172        C  0.96727776  0.64502503  0.13820913     0.05700
C173        C  0.96729013  0.61851398  0.11196118    -0.10400
C174        C  0.99896434  0.60067073  0.10346560     0.03300
C175        C  0.03064487  0.60917052  0.12130897    -0.08900
C176        C  0.03065874  0.63541713  0.14782814     0.05700
C177        C  0.99896575  0.65340037  0.15620390    -0.08300
H178        H  0.94277497  0.61183635  0.09815532     0.11300
H179        H  0.05515820  0.59536483  0.11463197     0.08900
H180        H  0.99896209  0.67383507  0.17664605     0.08700
C181        C  0.86040009  0.46510038  0.14768857     0.05700
C182        C  0.84230504  0.49676140  0.15594225    -0.10400
C183        C  0.85071866  0.52846755  0.13798195     0.03300
C184        C  0.87736610  0.52849732  0.11186277    -0.08900
C185        C  0.89531313  0.49684769  0.10346839     0.05700
C186        C  0.88678963  0.46515467  0.12130359    -0.08300
H187        H  0.82176948  0.49673237  0.17628686     0.11300
H188        H  0.88406967  0.55302583  0.09807845     0.08900
H189        H  0.90067693  0.44066212  0.11471591     0.08700
C190        C  0.96727005  0.35879038  0.85197012     0.05700
C191        C  0.96730219  0.38503109  0.87849099    -0.10400
C192        C  0.99901305  0.39360453  0.89624170     0.03300
C193        C  0.03071351  0.37584169  0.88763771    -0.08900
C194        C  0.03070855  0.34931688  0.86139158     0.05700
C195        C  0.99897697  0.34087347  0.84350150    -0.08300
H196        H  0.94277365  0.39877221  0.88524717     0.11300
H197        H  0.05525151  0.38256939  0.90137757     0.08900
H198        H  0.99895598  0.32042920  0.82306984     0.08700
C199        C  0.86029013  0.34945724  0.03182200     0.05700
C200        C  0.88652529  0.37600473  0.03178587    -0.10400
C201        C  0.89519229  0.39366599  0.00003879     0.03300
C202        C  0.87750595  0.38498598  0.96832803    -0.08900
C203        C  0.85099561  0.35872545  0.96833570     0.05700
C204        C  0.84246503  0.34090112  0.00008640    -0.08300
H205        H  0.90022898  0.38280702  0.05632124     0.11300
H206        H  0.88431751  0.39864693  0.94376358     0.08900
H207        H  0.82205102  0.32042845  0.00009219     0.08700
C208        C  0.52567645  0.47049624  0.50005709     0.04900
C209        C  0.49914809  0.47048333  0.52661707     0.04900
C210        C  0.47266217  0.49710622  0.52668673     0.04900
C211        C  0.47273626  0.52377194  0.50023312     0.04900
C212        C  0.49926945  0.52378042  0.47368267     0.04900
C213        C  0.52573558  0.49713572  0.47357667     0.04900
C214        C  0.53072351  0.35874850  0.64821610     0.05700
C215        C  0.49905984  0.34074105  0.65664878    -0.10400
C216        C  0.46734111  0.34906816  0.63865419     0.03300
C217        C  0.46731263  0.37556670  0.61233451    -0.08900
C218        C  0.49897018  0.39342921  0.60377806     0.05700
C219        C  0.53065817  0.38497904  0.62164754    -0.08300
H220        H  0.49910878  0.32030452  0.67711951     0.11300
H221        H  0.44279026  0.38219872  0.59850372     0.08900
H222        H  0.55515456  0.39878751  0.61492215     0.08700
C223        C  0.35168799  0.63609855  0.46824731     0.05700
C224        C  0.34330401  0.65405948  0.49993970    -0.10400
C225        C  0.36126089  0.64560558  0.53164500     0.03300
C226        C  0.38749187  0.61905175  0.53165272    -0.08900
C227        C  0.39599550  0.60121302  0.49999710     0.05700
C228        C  0.37819430  0.60979505  0.46829095    -0.08300
H229        H  0.32284962  0.67450561  0.49994018     0.11300
H230        H  0.40124364  0.61229718  0.55618776     0.08900
H231        H  0.38485551  0.59597320  0.44379543     0.08700
C232        C  0.64776982  0.52824853  0.36228563     0.05700
C233        C  0.62110790  0.52832603  0.38838721    -0.10400
C234        C  0.60301738  0.49674456  0.39672512     0.03300
C235        C  0.61144257  0.46505184  0.37886603    -0.08900
C236        C  0.63785783  0.46494339  0.35249611     0.05700
C237        C  0.65608018  0.49655080  0.34429586    -0.08300
H238        H  0.61447366  0.55285429  0.40217603     0.11300
H239        H  0.59743667  0.44061254  0.38539839     0.08900
H240        H  0.67661307  0.49649388  0.32394830     0.08700
C241        C  0.46729725  0.63608286  0.35261817     0.05700
C242        C  0.46729665  0.60978980  0.37913903    -0.10400
C243        C  0.49899004  0.60118592  0.39694009     0.03300
C244        C  0.53066837  0.61898650  0.38843599    -0.08900
C245        C  0.53069862  0.64553318  0.36219952     0.05700
C246        C  0.49901394  0.65401422  0.34422482    -0.08300
H247        H  0.44277921  0.59599430  0.38581113     0.11300
H248        H  0.55519362  0.61221057  0.40219700     0.08900
H249        H  0.49904734  0.67445828  0.32376172     0.08700
C250        C  0.36131010  0.52849041  0.64843803     0.05700
C251        C  0.34323575  0.49684930  0.65682159    -0.10400
C252        C  0.35141689  0.46517458  0.63873210     0.03300
C253        C  0.37784500  0.46516095  0.61237855    -0.08900
C254        C  0.39577936  0.49680104  0.60388576     0.05700
C255        C  0.38746892  0.52844864  0.62184055    -0.08300
H256        H  0.32284391  0.49688741  0.67730949     0.11300
H257        H  0.38436349  0.44066952  0.59847318     0.08900
H258        H  0.40131968  0.55293639  0.61514757     0.08700
C259        C  0.64698094  0.35857970  0.53167468     0.05700
C260        C  0.62042604  0.38480802  0.53158363    -0.10400
C261        C  0.60270595  0.39338307  0.49984970     0.03300
C262        C  0.61137520  0.37563668  0.46817385    -0.08900
C263        C  0.63766345  0.34912159  0.46823262     0.05700
C264        C  0.65552677  0.34067618  0.49999480    -0.08300
H265        H  0.61361566  0.39853988  0.55609147     0.11300
H266        H  0.59765357  0.38236766  0.44361614     0.08900
H267        H  0.67598733  0.32023819  0.50006263     0.08700
C268        C  0.02571781  0.97064286  0.49991569     0.04900
C269        C  0.99908528  0.97056884  0.47343730     0.04900
C270        C  0.97243157  0.99702168  0.47353108     0.04900
C271        C  0.97246207  0.02358044  0.50005338     0.04900
C272        C  0.99908767  0.02363735  0.52653725     0.04900
C273        C  0.02569779  0.99714178  0.52649359     0.04900
C274        C  0.03077263  0.14502911  0.63827793     0.05700
C275        C  0.99911256  0.15341119  0.65629939    -0.10400
C276        C  0.96740677  0.13545143  0.64793524     0.03300
C277        C  0.96738179  0.10921593  0.62140242    -0.08900
C278        C  0.99903701  0.10070684  0.60353414     0.05700
C279        C  0.03072043  0.11853450  0.61201423    -0.08300
H280        H  0.99914800  0.17383355  0.67675441     0.11300
H281        H  0.94286053  0.09542353  0.61473785     0.08900
H282        H  0.05521517  0.11185006  0.59819061     0.08700
C283        C  0.14739364  0.02851630  0.63812308     0.05700
C284        C  0.15568791  0.99685268  0.65623633    -0.10400
C285        C  0.13758940  0.96519416  0.64799363     0.03300
C286        C  0.11130476  0.96522026  0.62147178    -0.08900
C287        C  0.10289417  0.99687738  0.60349133     0.05700
C288        C  0.12086784  0.02850889  0.61185931    -0.08300
H289        H  0.17612721  0.99685702  0.67669624     0.11300
H290        H  0.09739460  0.94074062  0.61490774     0.08900
H291        H  0.11424526  0.05300980  0.59797278     0.08700
C292        C  0.13781115  0.84940722  0.53158738     0.05700
C293        C  0.15556880  0.84086560  0.49982219    -0.10400
C294        C  0.14704438  0.85880551  0.46812265     0.03300
C295        C  0.12060832  0.88515081  0.46819077    -0.08900
C296        C  0.10298439  0.89379955  0.49992540     0.05700
C297        C  0.11164590  0.87603744  0.53162495    -0.08300
H298        H  0.17593085  0.82032970  0.49976814     0.11300
H299        H  0.11379840  0.89889511  0.44366322     0.08900
H300        H  0.09798891  0.88282488  0.55618173     0.08700
C301        C  0.86053501  0.14492158  0.46835314     0.05700
C302        C  0.88678936  0.11838892  0.46841029    -0.10400
C303        C  0.89537097  0.10062714  0.50012390     0.03300
C304        C  0.87761123  0.10923029  0.53180526    -0.08900
C305        C  0.85108311  0.13549731  0.53178142     0.05700
C306        C  0.84261800  0.15340169  0.50004463    -0.08300
H307        H  0.90053739  0.11163224  0.44389634     0.11300
H308        H  0.88435472  0.09548255  0.55634838     0.08900
H309        H  0.82216849  0.17385215  0.50000935     0.08700
C310        C  0.86078811  0.02832593  0.35180741     0.05700
C311        C  0.84285675  0.99661463  0.34340988    -0.10400
C312        C  0.85112628  0.96496703  0.36156268     0.03300
C313        C  0.87750096  0.96503861  0.38798558    -0.08900
C314        C  0.89530896  0.99673305  0.39648769     0.05700
C315        C  0.88689847  0.02836797  0.37848687    -0.08300
H316        H  0.82251915  0.99657294  0.32284962     0.11300
H317        H  0.88410195  0.94055756  0.40191569     0.08900
H318        H  0.90066369  0.05289754  0.38517581     0.08700
C319        C  0.96740051  0.84925609  0.36146356     0.05700
C320        C  0.99910952  0.84090359  0.34351008    -0.10400
C321        C  0.03078484  0.85889626  0.35192350     0.03300
C322        C  0.03074096  0.88513522  0.37845108    -0.08900
C323        C  0.99905325  0.89361684  0.39627677     0.05700
C324        C  0.96738649  0.87576658  0.38772804    -0.08300
H325        H  0.99913812  0.82046609  0.32307082     0.11300
H326        H  0.05524374  0.89893717  0.38516259     0.08900
H327        H  0.94286607  0.88242032  0.40152036     0.08700
O328        O  0.24871362  0.19401618  0.69420007    -0.77500
O329        O  0.24938017  0.29967759  0.69409241    -0.77500
O330        O  0.17103958  0.21761515  0.73836514    -0.77500
O331        O  0.32695971  0.27606531  0.73856000    -0.77500
O332        O  0.19629155  0.24655096  0.69402660    -0.77600
O333        O  0.30185182  0.24710661  0.69418001    -0.77500
O334        O  0.27824400  0.32482732  0.73850657    -0.77500
O335        O  0.21974212  0.16885023  0.73855046    -0.77600
C336        C  0.22792532  0.17010165  0.70573990     1.12200
C337        C  0.27012592  0.32360277  0.70567672     1.12100
C338        C  0.17236988  0.22575670  0.70554009     1.12200
C339        C  0.32574362  0.26791002  0.70574396     1.12100
O340        O  0.32695364  0.21755877  0.76169445    -0.77500
O341        O  0.17097177  0.27612368  0.76138602    -0.77600
O342        O  0.24919367  0.19407932  0.80603374    -0.77500
O343        O  0.24862353  0.29963524  0.80591800    -0.77500
O344        O  0.21971529  0.32482465  0.76149566    -0.77600
O345        O  0.27820452  0.16886983  0.76175378    -0.77500
O346        O  0.30173219  0.24649116  0.80600829    -0.77500
O347        O  0.19606171  0.24721177  0.80585350    -0.77600
Co348      Co  0.28549528  0.21031825  0.72810499     1.51500
Co349      Co  0.21252163  0.28335993  0.72791647     1.51700
Co350      Co  0.21244190  0.21036907  0.77204718     1.51600
Co351      Co  0.28545874  0.28332122  0.77208786     1.51500
O352        O  0.24897950  0.24684281  0.75003934    -1.39500
C353        C  0.32566978  0.22571437  0.79450247     1.12100
C354        C  0.17217740  0.26801677  0.79422393     1.12200
C355        C  0.27000792  0.17015637  0.79456042     1.12100
C356        C  0.22785142  0.32356618  0.79432563     1.12100
O357        O  0.76042528  0.16872802  0.27916563    -0.77500
O358        O  0.76037809  0.32472913  0.22057329    -0.77500
O359        O  0.80475425  0.24698817  0.19701290    -0.77500
O360        O  0.80494739  0.24638025  0.30256105    -0.77500
O361        O  0.76034444  0.27598462  0.17190432    -0.77600
O362        O  0.76061841  0.21746745  0.32783529    -0.77500
O363        O  0.80481718  0.29952360  0.24942697    -0.77500
O364        O  0.80477078  0.19385404  0.25016645    -0.77600
C365        C  0.79323502  0.16994023  0.27096906     1.12200
C366        C  0.79321332  0.32347046  0.22867953     1.12100
C367        C  0.79317662  0.26785681  0.17315158     1.12200
C368        C  0.79344083  0.22558206  0.32649598     1.12100
O369        O  0.69311670  0.24714124  0.30283674    -0.77500
O370        O  0.69291833  0.24643379  0.19716792    -0.77600
O371        O  0.73718885  0.16880288  0.22072133    -0.77500
O372        O  0.73741848  0.32470282  0.27910244    -0.77500
O373        O  0.69298342  0.29956596  0.25023206    -0.77600
O374        O  0.69293431  0.19407303  0.24974027    -0.77500
O375        O  0.73759178  0.27599754  0.32788704    -0.77500
O376        O  0.73724680  0.21750228  0.17194257    -0.77600
Co377      Co  0.72692635  0.21028057  0.28645946     1.51500
Co378      Co  0.72681733  0.28324477  0.21339924     1.51700
Co379      Co  0.77084525  0.21021349  0.21339157     1.51600
Co380      Co  0.77102942  0.28322096  0.28631401     1.51500
O381        O  0.74890827  0.24674119  0.24989059    -1.39500
C382        C  0.70475591  0.26791268  0.32671005     1.12100
C383        C  0.70442865  0.22565010  0.17325225     1.12200
C384        C  0.70438847  0.17013435  0.22895385     1.12100
C385        C  0.70457841  0.32346338  0.27100270     1.12100
O386        O  0.30182040  0.69132030  0.25039243    -0.77500
O387        O  0.19614155  0.69115623  0.24955061    -0.77500
O388        O  0.27806824  0.73572846  0.32788105    -0.77500
O389        O  0.21973377  0.73542534  0.17188957    -0.77500
O390        O  0.24923396  0.69125272  0.30278780    -0.77600
O391        O  0.24873389  0.69112091  0.19719590    -0.77500
O392        O  0.17094309  0.73549549  0.22051642    -0.77500
O393        O  0.32684588  0.73581342  0.27924034    -0.77600
C394        C  0.32568849  0.70297043  0.27117704     1.12200
C395        C  0.17222532  0.70267896  0.22872427     1.12100
C396        C  0.27001429  0.70287969  0.32667963     1.12200
C397        C  0.22791876  0.70260790  0.17325197     1.12100
O398        O  0.27818496  0.75858233  0.17188429    -0.77500
O399        O  0.21952364  0.75868567  0.32776493    -0.77600
O400        O  0.30148356  0.80316459  0.24951599    -0.77500
O401        O  0.19601302  0.80301531  0.24995604    -0.77500
O402        O  0.17087376  0.75864683  0.27895747    -0.77600
O403        O  0.32681750  0.75881302  0.22070540    -0.77500
O404        O  0.24918240  0.80297672  0.19691196    -0.77500
O405        O  0.24835005  0.80310133  0.30253898    -0.77600
Co406      Co  0.28545530  0.72510928  0.21346992     1.51500
Co407      Co  0.21237510  0.72508650  0.28633435     1.51700
Co408      Co  0.28526151  0.76928313  0.28636032     1.51600
Co409      Co  0.21239425  0.76908018  0.21325230     1.51500
O410        O  0.24887037  0.74712989  0.24985432    -1.39500
C411        C  0.27002700  0.79140920  0.17307142     1.12100
C412        C  0.22757726  0.79152706  0.32644432     1.12200
C413        C  0.32544111  0.79164784  0.22878179     1.12100
C414        C  0.17212727  0.79147497  0.27077744     1.12100
C415        C  0.06334060  0.85026875  0.33345181    -0.15900
C416        C  0.09019168  0.84185978  0.31789132     0.08200
C417        C  0.12073910  0.82927822  0.29982564     0.10000
C418        C  0.14546079  0.81471872  0.28534049    -0.16700
C419        C  0.85217565  0.06085225  0.33322782    -0.15900
C420        C  0.84372832  0.08772980  0.31768945     0.08200
C421        C  0.83106516  0.11835456  0.29975912     0.10000
C422        C  0.81645883  0.14316367  0.28542208    -0.16700
C423        C  0.85186504  0.16333197  0.43575721    -0.15900
C424        C  0.84355078  0.17877239  0.40878979     0.08200
C425        C  0.83114122  0.19667610  0.37805830     0.10000
C426        C  0.81668541  0.21106189  0.35319887    -0.16700
C427        C  0.16530432  0.85005387  0.43550505    -0.15900
C428        C  0.18067216  0.84167516  0.40855026     0.08200
C429        C  0.19856331  0.82920563  0.37788060     0.10000
C430        C  0.21298436  0.81472982  0.35309279    -0.16700
C431        C  0.21347962  0.14336808  0.68251550    -0.15900
C432        C  0.19918376  0.11858062  0.66788987     0.08200
C433        C  0.18133891  0.08795430  0.65519911     0.10000
C434        C  0.16588616  0.06105981  0.64673711    -0.16700
C435        C  0.06333331  0.16348460  0.64688782    -0.15900
C436        C  0.09024554  0.17896354  0.65523841     0.08200
C437        C  0.12089672  0.19688569  0.66775060     0.10000
C438        C  0.14569387  0.21125870  0.68228375    -0.16700
C439        C  0.99908808  0.94329038  0.44612426    -0.10700
C440        C  0.99905359  0.92063925  0.42339524    -0.12200
C441        C  0.94500896  0.99691147  0.44634382    -0.10700
C442        C  0.92229244  0.99679963  0.42366252    -0.12200
C443        C  0.94512064  0.05083841  0.50009748    -0.10700
C444        C  0.92242549  0.07353469  0.50013871    -0.12200
C445        C  0.99907740  0.05092612  0.55382271    -0.10700
C446        C  0.99903284  0.07362896  0.57648945    -0.12200
C447        C  0.05301348  0.99708876  0.55380013    -0.10700
C448        C  0.07575068  0.99694928  0.57646669    -0.12200
C449        C  0.05310720  0.94344465  0.49986280    -0.10700
C450        C  0.07588324  0.92083585  0.49991297    -0.12200
C451        C  0.64639321  0.33062989  0.43571775    -0.15900
C452        C  0.65477793  0.31504534  0.40887561     0.08200
C453        C  0.66722748  0.29696776  0.37828227     0.10000
C454        C  0.68164076  0.28248485  0.35347716    -0.16700
C455        C  0.28459072  0.35040732  0.68251027    -0.15900
C456        C  0.29900188  0.37525790  0.66807135     0.08200
C457        C  0.31707867  0.40587581  0.65563456     0.10000
C458        C  0.33275045  0.43270225  0.64731232    -0.16700
C459        C  0.43477773  0.64472578  0.33404731    -0.15900
C460        C  0.40792518  0.65305387  0.31840788     0.08200
C461        C  0.37731025  0.66546232  0.30028777     0.10000
C462        C  0.35248077  0.67986004  0.28577968    -0.16700
C463        C  0.68140722  0.35020480  0.28555208    -0.15900
C464        C  0.66699150  0.37500583  0.30005241     0.08200
C465        C  0.65461075  0.40559188  0.31820379     0.10000
C466        C  0.64635116  0.43242337  0.33388572    -0.16700
C467        C  0.33310327  0.64471100  0.43571408    -0.15900
C468        C  0.31742229  0.65300980  0.40886809     0.08200
C469        C  0.29922599  0.66537340  0.37826562     0.10000
C470        C  0.28465145  0.67974218  0.35344800    -0.16700
C471        C  0.35252282  0.28240687  0.68257154    -0.15900
C472        C  0.37735844  0.29683297  0.66812670     0.08200
C473        C  0.40798393  0.31488211  0.65566562     0.10000
C474        C  0.43483391  0.33049142  0.64730417    -0.16700
C475        C  0.44550661  0.55116003  0.50025915    -0.10700
C476        C  0.42293223  0.57398656  0.50011073    -0.12200
C477        C  0.42271086  0.49684846  0.57668859    -0.10700
C478        C  0.44534277  0.49701328  0.55394662    -0.12200
C479        C  0.49925462  0.55115827  0.44645752    -0.10700
C480        C  0.49907946  0.57397511  0.42387919    -0.12200
C481        C  0.55300087  0.49708159  0.44624138    -0.10700
C482        C  0.57576739  0.49689833  0.42362227    -0.12200
C483        C  0.55289384  0.44311366  0.49994992    -0.10700
C484        C  0.57558553  0.42041284  0.49983335    -0.12200
C485        C  0.49908576  0.44310634  0.55386816    -0.10700
C486        C  0.49898092  0.42043150  0.57660427    -0.12200
C487        C  0.85161264  0.33099664  0.06439075    -0.15900
C488        C  0.84325708  0.31535985  0.09123082     0.08200
C489        C  0.83081057  0.29714804  0.12176663     0.10000
C490        C  0.81636518  0.28253360  0.14649166    -0.16700
C491        C  0.14543393  0.28260781  0.81735902    -0.15900
C492        C  0.12065736  0.29711198  0.83181308     0.08200
C493        C  0.09008945  0.31521894  0.84431287     0.10000
C494        C  0.06324948  0.33082199  0.85270959    -0.16700
C495        C  0.81637494  0.35024283  0.21418456    -0.15900
C496        C  0.83085313  0.37506948  0.19978304     0.08200
C497        C  0.84336389  0.40569240  0.18177387     0.10000
C498        C  0.85175321  0.43255896  0.16620467    -0.16700
C499        C  0.06320011  0.64404372  0.16633347    -0.15900
C500        C  0.09007754  0.65241996  0.18187493     0.08200
C501        C  0.12070127  0.66493929  0.19985926     0.10000
C502        C  0.14550646  0.67944966  0.21425134    -0.16700
C503        C  0.21337362  0.35033605  0.81749275    -0.15900
C504        C  0.19898133  0.37515824  0.83197565     0.08200
C505        C  0.18096675  0.40577246  0.84448961     0.10000
C506        C  0.16538142  0.43262846  0.85286753    -0.16700
C507        C  0.21340990  0.67933608  0.14659822    -0.15900
C508        C  0.19895160  0.66483773  0.12182965     0.08200
C509        C  0.18089069  0.65237850  0.09123190     0.10000
C510        C  0.16531672  0.64405176  0.06436160    -0.16700
C511        C  0.05287482  0.49705516  0.94614066    -0.10700
C512        C  0.07556665  0.49697657  0.92344597    -0.12200
C513        C  0.05274469  0.55094298  0.99995515    -0.10700
C514        C  0.07540188  0.57365688  0.00004972    -0.12200
C515        C  0.99892193  0.55090764  0.05374135    -0.10700
C516        C  0.99894712  0.57360110  0.07641570    -0.12200
C517        C  0.94516120  0.49698055  0.05380350    -0.10700
C518        C  0.92246602  0.49689732  0.07648646    -0.12200
C519        C  0.92232684  0.42066417  0.99996734    -0.10700
C520        C  0.94508208  0.44328702  0.99988646    -0.12200
C521        C  0.99900343  0.42063478  0.92333861    -0.10700
C522        C  0.99896300  0.44329024  0.94605475    -0.12200
C523        C  0.33251061  0.85010223  0.06408340    -0.15900
C524        C  0.31704635  0.84169833  0.09099368     0.08200
C525        C  0.29907583  0.82914206  0.12161131     0.10000
C526        C  0.28462052  0.81461319  0.14637562    -0.16700
C527        C  0.43456278  0.85024893  0.16666527    -0.15900
C528        C  0.40759172  0.84193855  0.18205633     0.08200
C529        C  0.37689763  0.82945212  0.19991355     0.10000
C530        C  0.35209571  0.81491629  0.21427031    -0.16700
C531        C  0.43495043  0.16375345  0.85327786    -0.15900
C532        C  0.40800815  0.17917583  0.84485690     0.08200
C533        C  0.37729236  0.19699213  0.83228659     0.10000
C534        C  0.35242799  0.21127898  0.81774115    -0.16700
C535        C  0.33224377  0.06103723  0.85338412    -0.15900
C536        C  0.31671780  0.08794540  0.84501718     0.08200
C537        C  0.29879500  0.11860674  0.83243354     0.10000
C538        C  0.28445716  0.14342570  0.81784353    -0.16700
C539        C  0.64570033  0.16365615  0.06411907    -0.15900
C540        C  0.65408858  0.17904291  0.09106262     0.08200
C541        C  0.66663207  0.19685603  0.12175257     0.10000
C542        C  0.68117725  0.21117347  0.14656774    -0.16700
C543        C  0.68107587  0.14343728  0.21459883    -0.15900
C544        C  0.66639155  0.11863504  0.20040146     0.08200
C545        C  0.65368530  0.08795968  0.18267497     0.10000
C546        C  0.64523873  0.06102285  0.16730418    -0.16700
C547        C  0.42259312  0.99681830  0.92344375    -0.10700
C548        C  0.44528124  0.99689950  0.94615658    -0.12200
C549        C  0.44525851  0.94303017  0.99998239    -0.11900
C550        C  0.42251887  0.92038944  0.99983579    -0.12200
C551        C  0.55274387  0.05088610  0.00024965    -0.10700
C552        C  0.57535981  0.07364618  0.00007435    -0.12200
C553        C  0.49897179  0.05093695  0.94640687    -0.10700
C554        C  0.49907251  0.07371635  0.92378309    -0.12200
C555        C  0.49900152  0.94308956  0.05403863    -0.10700
C556        C  0.49909563  0.92045146  0.07680885    -0.12200
C557        C  0.55271190  0.99698943  0.05417641    -0.10700
C558        C  0.57528067  0.99687173  0.07700413    -0.12200
C559        C  0.83263614  0.93241866  0.35295512    -0.15900
C560        C  0.81710986  0.90552484  0.34462396     0.08200
C561        C  0.79916005  0.87486163  0.33217226     0.10000
C562        C  0.78479947  0.85001513  0.31771358    -0.16700
C563        C  0.71319602  0.85019995  0.18291143    -0.15900
C564        C  0.69874802  0.87507758  0.16853329     0.08200
C565        C  0.68068671  0.90574013  0.15615203     0.10000
C566        C  0.66505757  0.93260796  0.14784606    -0.16700
C567        C  0.85233966  0.71122706  0.18220822    -0.15900
C568        C  0.87715561  0.69690369  0.16766657     0.08200
C569        C  0.90782187  0.67900041  0.15516634     0.10000
C570        C  0.93473171  0.66351020  0.14682299    -0.16700
C571        C  0.85279527  0.78235284  0.31740481    -0.15900
C572        C  0.87755029  0.79688591  0.33187677     0.08200
C573        C  0.90808251  0.81503883  0.34440504     0.10000
C574        C  0.93489068  0.83069187  0.35281065    -0.16700
C575        C  0.66636361  0.56074958  0.35369342    -0.15900
C576        C  0.68186352  0.58763202  0.34525145     0.08200
C577        C  0.69972142  0.61826673  0.33256860     0.10000
C578        C  0.71399199  0.64306796  0.31791734    -0.16700
C579        C  0.78448532  0.64323123  0.18239685    -0.15900
C580        C  0.79876212  0.61845385  0.16773380     0.08200
C581        C  0.81665536  0.58785710  0.15502974     0.10000
C582        C  0.83217621  0.56099522  0.14657271    -0.16700
C583        C  0.56306096  0.83043810  0.14770305    -0.15900
C584        C  0.58988422  0.81479087  0.15613477     0.08200
C585        C  0.62048908  0.79669924  0.16864094     0.10000
C586        C  0.64533485  0.78223697  0.18307095    -0.16700
C587        C  0.64599786  0.71097839  0.31813146    -0.15900
C588        C  0.62111569  0.69678752  0.33267913     0.08200
C589        C  0.59032099  0.67913337  0.34517986     0.10000
C590        C  0.56330058  0.66385950  0.35352765    -0.16700
C591        C  0.93469540  0.35010962  0.83354865    -0.15900
C592        C  0.90780681  0.34170598  0.81804186     0.08200
C593        C  0.87719861  0.32915716  0.80005329     0.10000
C594        C  0.85242609  0.31461899  0.78563446    -0.16700
C595        C  0.93489299  0.14409379  0.66646522    -0.15900
C596        C  0.90803550  0.15248898  0.68201744     0.08200
C597        C  0.87742489  0.16502213  0.70000248     0.10000
C598        C  0.85261567  0.17951698  0.71439790    -0.16700
C599        C  0.66522048  0.14415341  0.93568921    -0.15900
C600        C  0.68088586  0.15242097  0.90884870     0.08200
C601        C  0.69904172  0.16480073  0.87826169     0.10000
C602        C  0.71355995  0.17923297  0.85347413    -0.16700
C603        C  0.78484165  0.31442557  0.85343912    -0.15900
C604        C  0.79928043  0.32892882  0.87821428     0.08200
C605        C  0.81723146  0.34147315  0.90883890     0.10000
C606        C  0.83266640  0.34992428  0.93574872    -0.16700
C607        C  0.64568704  0.17928230  0.78570325    -0.15900
C608        C  0.62087003  0.16479921  0.80010929     0.08200
C609        C  0.59024237  0.15234290  0.81813370     0.10000
C610        C  0.56337495  0.14404546  0.83373066    -0.16700
C611        C  0.64565287  0.31452647  0.71446413    -0.15900
C612        C  0.62087379  0.32910087  0.70005561     0.08200
C613        C  0.59023546  0.34169828  0.68212044     0.10000
C614        C  0.56331336  0.35011142  0.66665503    -0.16700
C615        C  0.71319552  0.31455194  0.64670708    -0.15900
C616        C  0.69873910  0.32905047  0.62191161     0.08200
C617        C  0.68078278  0.34154080  0.59124402     0.10000
C618        C  0.66534148  0.34990307  0.56429409    -0.16700
C619        C  0.83264294  0.14419124  0.56432655    -0.15900
C620        C  0.81714443  0.15255502  0.59121969     0.08200
C621        C  0.79916563  0.16501365  0.62185702     0.10000
C622        C  0.78473143  0.17946594  0.64666041    -0.16700
C623        C  0.31665622  0.78229213  0.85339878    -0.15900
C624        C  0.33105150  0.79685807  0.87817381     0.08200
C625        C  0.34341575  0.81504557  0.90874430     0.10000
C626        C  0.35171218  0.83070530  0.93557554    -0.16700
C627        C  0.14629623  0.66312694  0.93575748    -0.15900
C628        C  0.15471065  0.67850471  0.90880120     0.08200
C629        C  0.16719835  0.69636593  0.87810057     0.10000
C630        C  0.18166030  0.71074780  0.85326550    -0.16700
C631        C  0.18142792  0.85025742  0.71460299    -0.15900
C632        C  0.16693454  0.87514068  0.70027243     0.08200
C633        C  0.15445473  0.90581350  0.68228064     0.10000
C634        C  0.14612835  0.93268397  0.66665426    -0.16700
C635        C  0.31647370  0.85029715  0.78573547    -0.15900
C636        C  0.33094824  0.87513572  0.80010645     0.08200
C637        C  0.34347628  0.90576585  0.81807319     0.10000
C638        C  0.35188010  0.93262668  0.83362185    -0.16700
C639        C  0.31696026  0.71142923  0.64664765    -0.15900
C640        C  0.33154161  0.69712744  0.62184861     0.08200
C641        C  0.34412993  0.67933270  0.59116643     0.10000
C642        C  0.35255553  0.66397213  0.56421974    -0.16700
C643        C  0.14650520  0.83088553  0.56412575    -0.15900
C644        C  0.15485720  0.81527941  0.59099415     0.08200
C645        C  0.16728873  0.79716916  0.62161034     0.10000
C646        C  0.18171551  0.78265042  0.64641959    -0.16700
C647        C  0.31690647  0.64340005  0.71431379    -0.15900
C648        C  0.33158526  0.61862130  0.70006628     0.08200
C649        C  0.34430141  0.58797757  0.68229006     0.10000
C650        C  0.35274524  0.56105596  0.66689004    -0.16700
C651        C  0.14574049  0.56104411  0.83312143    -0.15900
C652        C  0.15421496  0.58788514  0.81755095     0.08200
C653        C  0.16692568  0.61845041  0.79957780     0.10000
C654        C  0.18157200  0.64320882  0.78522342    -0.16700
loop_ 
_geom_bond_atom_site_label_1 
_geom_bond_atom_site_label_2 
_geom_bond_distance 
_geom_bond_site_symmetry_2 
_ccdc_geom_bond_type 
O1            C9   1.265       .  A
O1          Co21   1.974       .  S
O2           C10   1.265       .  A
O2          Co22   1.974       .  S
O3           C11   1.270       .  A
O3          Co23   2.020       .  S
O4           C12   1.270       .  A
O4          Co24   2.020       .  S
O5           C11   1.265       .  A
O5          Co22   1.974       .  S
O6           C12   1.265       .  A
O6          Co21   1.975       .  S
O7           C10   1.270       .  A
O7          Co24   2.021       .  S
O8            C9   1.270       .  A
O8          Co23   2.021       .  S
C9          C647   1.435       .  S
C10         C635   1.435       .  S
C11         C639   1.435       .  S
C12         C623   1.436       .  S
O13          C26   1.269       .  A
O13         Co21   2.020       .  S
O14          C27   1.270       .  A
O14         Co22   2.020       .  S
O15          C28   1.265       .  A
O15         Co23   1.974       .  S
O16          C29   1.265       .  A
O16         Co24   1.974       .  S
O17          C29   1.270       .  A
O17         Co22   2.021       .  S
O18          C28   1.270       .  A
O18         Co21   2.021       .  S
O19          C26   1.265       .  A
O19         Co24   1.974       .  S
O20          C27   1.265       .  A
O20         Co23   1.975       .  S
Co21         O25   2.105       .  S
Co22         O25   2.105       .  S
Co23         O25   2.106       .  S
Co24         O25   2.105       .  S
C26         C630   1.435       .  S
C27         C646   1.435       .  S
C28         C654   1.435       .  S
C29         C631   1.436       .  S
O30          C38   1.265       .  A
O30         Co50   1.974       .  S
O31          C39   1.265       .  A
O31         Co51   1.975       .  S
O32          C40   1.270       .  A
O32         Co52   2.020       .  S
O33          C41   1.270       .  A
O33         Co53   2.020       .  S
O34          C40   1.265       .  A
O34         Co51   1.974       .  S
O35          C41   1.265       .  A
O35         Co50   1.974       .  S
O36          C39   1.270       .  A
O36         Co53   2.020       .  S
O37          C38   1.270       .  A
O37         Co52   2.020       .  S
C38         C622   1.435       .  S
C39         C602   1.435       .  S
C40         C598   1.435       .  S
C41         C607   1.435       .  S
O42          C55   1.270       .  A
O42         Co50   2.021       .  S
O43          C56   1.270       .  A
O43         Co51   2.021       .  S
O44          C57   1.265       .  A
O44         Co52   1.974       .  S
O45          C58   1.265       .  A
O45         Co53   1.974       .  S
O46          C58   1.270       .  A
O46         Co51   2.020       .  S
O47          C57   1.270       .  A
O47         Co50   2.020       .  S
O48          C55   1.265       .  A
O48         Co53   1.974       .  S
O49          C56   1.265       .  A
O49         Co52   1.974       .  S
Co50         O54   2.105       .  S
Co51         O54   2.105       .  S
Co52         O54   2.105       .  S
Co53         O54   2.105       .  S
C55         C611   1.435       .  S
C56         C594   1.435       .  S
C57         C615   1.435       .  S
C58         C603   1.435       .  S
O59          C67   1.265       .  A
O59         Co79   1.975       .  S
O60          C68   1.265       .  A
O60         Co80   1.974       .  S
O61          C69   1.270       .  A
O61         Co81   2.020       .  S
O62          C70   1.270       .  A
O62         Co82   2.021       .  S
O63          C69   1.265       .  A
O63         Co80   1.974       .  S
O64          C70   1.265       .  A
O64         Co79   1.974       .  S
O65          C68   1.270       .  A
O65         Co82   2.020       .  S
O66          C67   1.270       .  A
O66         Co81   2.021       .  S
C67         C586   1.436       .  S
C68         C567   1.435       .  S
C69         C563   1.435       .  S
C70         C579   1.435       .  S
O71          C84   1.270       .  A
O71         Co79   2.021       .  S
O72          C85   1.270       .  A
O72         Co80   2.020       .  S
O73          C86   1.265       .  A
O73         Co81   1.973       .  S
O74          C87   1.265       .  A
O74         Co82   1.975       .  S
O75          C87   1.270       .  A
O75         Co80   2.021       .  S
O76          C86   1.270       .  A
O76         Co79   2.020       .  S
O77          C84   1.265       .  A
O77         Co82   1.974       .  S
O78          C85   1.265       .  A
O78         Co81   1.974       .  S
Co79         O83   2.105       .  S
Co80         O83   2.105       .  S
Co81         O83   2.105       .  S
Co82         O83   2.105       .  S
C84         C578   1.435       .  S
C85         C562   1.435       .  S
C86         C587   1.434       .  S
C87         C571   1.436       .  S
C88         C555   1.449       .  S
C88          C89   1.409       .  A
C88          C93   1.409       .  A
C89         C557   1.448       .  S
C89          C90   1.409   1_565  A
C90         C551   1.448       .  S
C90          C91   1.409   1_554  A
C91         C553   1.448       .  S
C91          C92   1.409   1_545  A
C92         C548   1.449       .  S
C92          C93   1.409   1_556  A
C93         C549   1.448   1_554  S
C94         C546   1.441       .  S
C94          C95   1.403   1_545  A
C94          C99   1.400       .  A
C95          C96   1.403       .  A
C95         H100   1.085       .  S
C96         C566   1.441       .  S
C96          C97   1.401       .  A
C97          C98   1.401       .  A
C97         H101   1.085       .  S
C98         C558   1.436       .  S
C98          C99   1.401   1_565  A
C99         H102   1.085       .  S
C103        C539   1.441       .  S
C103        C104   1.400       .  A
C103        C108   1.403   1_554  A
C104        C105   1.400   1_554  A
C104        H109   1.085       .  S
C105        C552   1.436   1_556  S
C105        C106   1.401       .  A
C106        C107   1.401       .  A
C106        H110   1.085       .  S
C107        C599   1.442       .  S
C107        C108   1.403       .  A
C108        H111   1.085       .  S
C112        C535   1.441       .  S
C112        C113   1.400       .  A
C112        C117   1.403   1_545  A
C113        C114   1.401   1_545  A
C113        H118   1.085       .  S
C114        C547   1.437       .  S
C114        C115   1.401       .  A
C115        C116   1.401       .  A
C115        H119   1.085       .  S
C116        C638   1.442       .  S
C116        C117   1.403       .  A
C117        H120   1.085       .  S
C121        C531   1.441       .  S
C121        C122   1.403       .  A
C121        C126   1.400       .  A
C122        C123   1.403       .  A
C122        H127   1.085       .  S
C123        C610   1.441       .  S
C123        C124   1.400       .  A
C124        C125   1.401       .  A
C124        H128   1.085       .  S
C125        C554   1.436       .  S
C125        C126   1.401       .  A
C126        H129   1.085       .  S
C130        C527   1.441       .  S
C130        C131   1.400       .  A
C130        C135   1.403       .  A
C131        C132   1.401       .  A
C131        H136   1.085       .  S
C132        C556   1.437       .  S
C132        C133   1.401       .  A
C133        C134   1.401       .  A
C133        H137   1.085       .  S
C134        C583   1.442       .  S
C134        C135   1.403       .  A
C135        H138   1.085       .  S
C139        C523   1.441       .  S
C139        C140   1.403   1_554  A
C139        C144   1.400       .  A
C140        C141   1.403       .  A
C140        H145   1.085       .  S
C141        C626   1.442       .  S
C141        C142   1.401       .  A
C142        C143   1.401       .  A
C142        H146   1.085       .  S
C143        C550   1.436       .  S
C143        C144   1.401   1_556  A
C144        H147   1.085       .  S
C148        C513   1.448       .  S
C148        C149   1.409       .  A
C148        C153   1.409   1_456  A
C149        C511   1.449       .  S
C149        C150   1.409   1_455  A
C150        C522   1.448       .  S
C150        C151   1.409       .  A
C151        C520   1.448       .  S
C151        C152   1.409   1_556  A
C152        C517   1.449       .  S
C152        C153   1.408       .  A
C153        C515   1.448       .  S
C154        C627   1.441       .  S
C154        C155   1.403   1_556  A
C154        C159   1.400       .  A
C155        C156   1.403       .  A
C155        H160   1.085       .  S
C156        C510   1.441       .  S
C156        C157   1.400       .  A
C157        C158   1.401       .  A
C157        H161   1.085       .  S
C158        C514   1.436       .  S
C158        C159   1.401   1_554  A
C159        H162   1.085       .  S
C163        C651   1.441       .  S
C163        C164   1.403       .  A
C163        C168   1.400       .  A
C164        C165   1.403       .  A
C164        H169   1.085       .  S
C165        C506   1.442       .  S
C165        C166   1.401       .  A
C166        C167   1.401       .  A
C166        H170   1.085       .  S
C167        C512   1.437       .  S
C167        C168   1.401       .  A
C168        H171   1.085       .  S
C172        C570   1.441       .  S
C172        C173   1.400       .  A
C172        C177   1.403       .  A
C173        C174   1.401       .  A
C173        H178   1.085       .  S
C174        C516   1.436       .  S
C174        C175   1.401   1_655  A
C175        C176   1.400       .  A
C175        H179   1.085       .  S
C176        C499   1.441       .  S
C176        C177   1.403   1_455  A
C177        H180   1.085       .  S
C181        C498   1.441       .  S
C181        C182   1.403       .  A
C181        C186   1.400       .  A
C182        C183   1.403       .  A
C182        H187   1.085       .  S
C183        C582   1.441       .  S
C183        C184   1.400       .  A
C184        C185   1.401       .  A
C184        H188   1.085       .  S
C185        C518   1.437       .  S
C185        C186   1.401       .  A
C186        H189   1.085       .  S
C190        C591   1.441       .  S
C190        C191   1.400       .  A
C190        C195   1.403       .  A
C191        C192   1.401       .  A
C191        H196   1.085       .  S
C192        C521   1.436       .  S
C192        C193   1.401   1_655  A
C193        C194   1.400       .  A
C193        H197   1.085       .  S
C194        C494   1.442       .  S
C194        C195   1.403   1_455  A
C195        H198   1.085       .  S
C199        C487   1.442       .  S
C199        C200   1.400       .  A
C199        C204   1.403       .  A
C200        C201   1.401       .  A
C200        H205   1.085       .  S
C201        C519   1.436   1_554  S
C201        C202   1.401   1_554  A
C202        C203   1.400       .  A
C202        H206   1.085       .  S
C203        C606   1.441       .  S
C203        C204   1.403   1_556  A
C204        H207   1.085       .  S
C208        C483   1.448       .  S
C208        C209   1.409       .  A
C208        C213   1.409       .  A
C209        C485   1.449       .  S
C209        C210   1.409       .  A
C210        C478   1.448       .  S
C210        C211   1.409       .  A
C211        C475   1.449       .  S
C211        C212   1.409       .  A
C212        C479   1.448       .  S
C212        C213   1.409       .  A
C213        C481   1.449       .  S
C214        C614   1.441       .  S
C214        C215   1.403       .  A
C214        C219   1.400       .  A
C215        C216   1.403       .  A
C215        H220   1.085       .  S
C216        C474   1.442       .  S
C216        C217   1.401       .  A
C217        C218   1.401       .  A
C217        H221   1.085       .  S
C218        C486   1.437       .  S
C218        C219   1.401       .  A
C219        H222   1.085       .  S
C223        C467   1.442       .  S
C223        C224   1.403       .  A
C223        C228   1.401       .  A
C224        C225   1.403       .  A
C224        H229   1.085       .  S
C225        C642   1.441       .  S
C225        C226   1.400       .  A
C226        C227   1.401       .  A
C226        H230   1.085       .  S
C227        C476   1.437       .  S
C227        C228   1.401       .  A
C228        H231   1.085       .  S
C232        C575   1.441       .  S
C232        C233   1.400       .  A
C232        C237   1.403       .  A
C233        C234   1.401       .  A
C233        H238   1.085       .  S
C234        C482   1.437       .  S
C234        C235   1.401       .  A
C235        C236   1.401       .  A
C235        H239   1.085       .  S
C236        C466   1.442       .  S
C236        C237   1.403       .  A
C237        H240   1.085       .  S
C241        C459   1.441       .  S
C241        C242   1.401       .  A
C241        C246   1.403       .  A
C242        C243   1.401       .  A
C242        H247   1.085       .  S
C243        C480   1.436       .  S
C243        C244   1.400       .  A
C244        C245   1.400       .  A
C244        H248   1.085       .  S
C245        C590   1.441       .  S
C245        C246   1.403       .  A
C246        H249   1.085       .  S
C250        C650   1.441       .  S
C250        C251   1.403       .  A
C250        C255   1.400       .  A
C251        C252   1.403       .  A
C251        H256   1.085       .  S
C252        C458   1.442       .  S
C252        C253   1.401       .  A
C253        C254   1.401       .  A
C253        H257   1.085       .  S
C254        C477   1.436       .  S
C254        C255   1.401       .  A
C255        H258   1.085       .  S
C259        C618   1.441       .  S
C259        C260   1.400       .  A
C259        C264   1.403       .  A
C260        C261   1.401       .  A
C260        H265   1.085       .  S
C261        C484   1.436       .  S
C261        C262   1.401       .  A
C262        C263   1.401       .  A
C262        H266   1.085       .  S
C263        C451   1.442       .  S
C263        C264   1.403       .  A
C264        H267   1.085       .  S
C268        C449   1.448       .  S
C268        C269   1.409   1_455  A
C268        C273   1.409       .  A
C269        C439   1.449       .  S
C269        C270   1.409       .  A
C270        C441   1.448       .  S
C270        C271   1.409   1_565  A
C271        C443   1.448       .  S
C271        C272   1.409       .  A
C272        C445   1.448       .  S
C272        C273   1.409   1_645  A
C273        C447   1.449       .  S
C274        C435   1.441       .  S
C274        C275   1.403   1_455  A
C274        C279   1.400       .  A
C275        C276   1.403       .  A
C275        H280   1.085       .  S
C276        C595   1.441       .  S
C276        C277   1.400       .  A
C277        C278   1.401       .  A
C277        H281   1.085       .  S
C278        C446   1.436       .  S
C278        C279   1.401   1_655  A
C279        H282   1.085       .  S
C283        C434   1.441       .  S
C283        C284   1.403   1_545  A
C283        C288   1.400       .  A
C284        C285   1.403       .  A
C284        H289   1.085       .  S
C285        C634   1.442       .  S
C285        C286   1.401       .  A
C286        C287   1.401       .  A
C286        H290   1.085       .  S
C287        C448   1.437       .  S
C287        C288   1.401   1_565  A
C288        H291   1.085       .  S
C292        C643   1.441       .  S
C292        C293   1.403       .  A
C292        C297   1.400       .  A
C293        C294   1.403       .  A
C293        H298   1.085       .  S
C294        C427   1.441       .  S
C294        C295   1.400       .  A
C295        C296   1.400       .  A
C295        H299   1.085       .  S
C296        C450   1.436       .  S
C296        C297   1.401       .  A
C297        H300   1.085       .  S
C301        C423   1.441       .  S
C301        C302   1.400       .  A
C301        C306   1.403       .  A
C302        C303   1.401       .  A
C302        H307   1.085       .  S
C303        C444   1.436       .  S
C303        C304   1.401       .  A
C304        C305   1.400       .  A
C304        H308   1.085       .  S
C305        C619   1.441       .  S
C305        C306   1.403       .  A
C306        H309   1.085       .  S
C310        C419   1.441       .  S
C310        C311   1.403   1_545  A
C310        C315   1.400       .  A
C311        C312   1.403       .  A
C311        H316   1.085       .  S
C312        C559   1.441       .  S
C312        C313   1.400       .  A
C313        C314   1.401       .  A
C313        H317   1.085       .  S
C314        C442   1.437       .  S
C314        C315   1.401   1_565  A
C315        H318   1.085       .  S
C319        C574   1.442       .  S
C319        C320   1.403       .  A
C319        C324   1.401       .  A
C320        C321   1.403   1_655  A
C320        H325   1.085       .  S
C321        C415   1.441       .  S
C321        C322   1.400       .  A
C322        C323   1.401   1_455  A
C322        H326   1.085       .  S
C323        C440   1.437       .  S
C323        C324   1.401       .  A
C324        H327   1.085       .  S
O328        C336   1.265       .  A
O328       Co348   1.974       .  S
O329        C337   1.265       .  A
O329       Co349   1.974       .  S
O330        C338   1.270       .  A
O330       Co350   2.020       .  S
O331        C339   1.270       .  A
O331       Co351   2.021       .  S
O332        C338   1.265       .  A
O332       Co349   1.974       .  S
O333        C339   1.265       .  A
O333       Co348   1.975       .  S
O334        C337   1.270       .  A
O334       Co351   2.020       .  S
O335        C336   1.270       .  A
O335       Co350   2.021       .  S
C336        C431   1.435       .  S
C337        C455   1.435       .  S
C338        C438   1.435       .  S
C339        C471   1.436       .  S
O340        C353   1.270       .  A
O340       Co348   2.020       .  S
O341        C354   1.270       .  A
O341       Co349   2.020       .  S
O342        C355   1.265       .  A
O342       Co350   1.974       .  S
O343        C356   1.265       .  A
O343       Co351   1.974       .  S
O344        C356   1.270       .  A
O344       Co349   2.021       .  S
O345        C355   1.270       .  A
O345       Co348   2.021       .  S
O346        C353   1.265       .  A
O346       Co351   1.974       .  S
O347        C354   1.265       .  A
O347       Co350   1.975       .  S
Co348       O352   2.105       .  S
Co349       O352   2.105       .  S
Co350       O352   2.106       .  S
Co351       O352   2.105       .  S
C353        C534   1.435       .  S
C354        C491   1.436       .  S
C355        C538   1.435       .  S
C356        C503   1.435       .  S
O357        C365   1.270       .  A
O357       Co377   2.021       .  S
O358        C366   1.270       .  A
O358       Co378   2.020       .  S
O359        C367   1.265       .  A
O359       Co379   1.975       .  S
O360        C368   1.265       .  A
O360       Co380   1.974       .  S
O361        C367   1.270       .  A
O361       Co378   2.021       .  S
O362        C368   1.270       .  A
O362       Co377   2.020       .  S
O363        C366   1.265       .  A
O363       Co380   1.974       .  S
O364        C365   1.265       .  A
O364       Co379   1.974       .  S
C365        C422   1.435       .  S
C366        C495   1.435       .  S
C367        C490   1.436       .  S
C368        C426   1.435       .  S
O369        C382   1.265       .  A
O369       Co377   1.975       .  S
O370        C383   1.265       .  A
O370       Co378   1.974       .  S
O371        C384   1.270       .  A
O371       Co379   2.021       .  S
O372        C385   1.270       .  A
O372       Co380   2.021       .  S
O373        C385   1.265       .  A
O373       Co378   1.974       .  S
O374        C384   1.265       .  A
O374       Co377   1.973       .  S
O375        C382   1.270       .  A
O375       Co380   2.020       .  S
O376        C383   1.270       .  A
O376       Co379   2.020       .  S
Co377       O381   2.105       .  S
Co378       O381   2.105       .  S
Co379       O381   2.106       .  S
Co380       O381   2.105       .  S
C382        C454   1.436       .  S
C383        C542   1.435       .  S
C384        C543   1.435       .  S
C385        C463   1.436       .  S
O386        C394   1.265       .  A
O386       Co406   1.975       .  S
O387        C395   1.265       .  A
O387       Co407   1.974       .  S
O388        C396   1.270       .  A
O388       Co408   2.020       .  S
O389        C397   1.270       .  A
O389       Co409   2.020       .  S
O390        C396   1.266       .  A
O390       Co407   1.975       .  S
O391        C397   1.265       .  A
O391       Co406   1.974       .  S
O392        C395   1.270       .  A
O392       Co409   2.020       .  S
O393        C394   1.270       .  A
O393       Co408   2.020       .  S
C394        C462   1.435       .  S
C395        C502   1.435       .  S
C396        C470   1.436       .  S
C397        C507   1.435       .  S
O398        C411   1.270       .  A
O398       Co406   2.020       .  S
O399        C412   1.270       .  A
O399       Co407   2.020       .  S
O400        C413   1.265       .  A
O400       Co408   1.974       .  S
O401        C414   1.265       .  A
O401       Co409   1.974       .  S
O402        C414   1.270       .  A
O402       Co407   2.021       .  S
O403        C413   1.270       .  A
O403       Co406   2.020       .  S
O404        C411   1.265       .  A
O404       Co409   1.974       .  S
O405        C412   1.265       .  A
O405       Co408   1.974       .  S
Co406       O410   2.105       .  S
Co407       O410   2.105       .  S
Co408       O410   2.105       .  S
Co409       O410   2.105       .  S
C411        C526   1.435       .  S
C412        C430   1.435       .  S
C413        C530   1.435       .  S
C414        C418   1.435       .  S
C415        C416   1.207       .  T
C416        C417   1.413       .  S
C417        C418   1.206       .  T
C419        C420   1.207       .  T
C420        C421   1.413       .  S
C421        C422   1.206       .  T
C423        C424   1.206       .  T
C424        C425   1.413       .  S
C425        C426   1.206       .  T
C427        C428   1.206       .  T
C428        C429   1.412       .  S
C429        C430   1.206       .  T
C431        C432   1.206       .  T
C432        C433   1.413       .  S
C433        C434   1.206       .  T
C435        C436   1.206       .  T
C436        C437   1.413       .  S
C437        C438   1.206       .  T
C439        C440   1.204       .  T
C441        C442   1.204       .  T
C443        C444   1.204       .  T
C445        C446   1.204       .  T
C447        C448   1.204       .  T
C449        C450   1.204       .  T
C451        C452   1.207       .  T
C452        C453   1.413       .  S
C453        C454   1.206       .  T
C455        C456   1.206       .  T
C456        C457   1.413       .  S
C457        C458   1.207       .  T
C459        C460   1.207       .  T
C460        C461   1.413       .  S
C461        C462   1.206       .  T
C463        C464   1.206       .  T
C464        C465   1.413       .  S
C465        C466   1.207       .  T
C467        C468   1.207       .  T
C468        C469   1.413       .  S
C469        C470   1.206       .  T
C471        C472   1.206       .  T
C472        C473   1.413       .  S
C473        C474   1.207       .  T
C475        C476   1.204       .  T
C477        C478   1.204       .  T
C479        C480   1.204       .  T
C481        C482   1.204       .  T
C483        C484   1.204       .  T
C485        C486   1.204       .  T
C487        C488   1.207       .  T
C488        C489   1.413       .  S
C489        C490   1.206       .  T
C491        C492   1.206       .  T
C492        C493   1.413       .  S
C493        C494   1.207       .  T
C495        C496   1.206       .  T
C496        C497   1.413       .  S
C497        C498   1.206       .  T
C499        C500   1.206       .  T
C500        C501   1.413       .  S
C501        C502   1.206       .  T
C503        C504   1.206       .  T
C504        C505   1.413       .  S
C505        C506   1.207       .  T
C507        C508   1.206       .  T
C508        C509   1.413       .  S
C509        C510   1.206       .  T
C511        C512   1.204       .  T
C513        C514   1.204   1_556  T
C515        C516   1.204       .  T
C517        C518   1.204       .  T
C519        C520   1.204       .  T
C521        C522   1.204       .  T
C523        C524   1.206       .  T
C524        C525   1.413       .  S
C525        C526   1.206       .  T
C527        C528   1.206       .  T
C528        C529   1.412       .  S
C529        C530   1.206       .  T
C531        C532   1.206       .  T
C532        C533   1.413       .  S
C533        C534   1.206       .  T
C535        C536   1.207       .  T
C536        C537   1.413       .  S
C537        C538   1.206       .  T
C539        C540   1.206       .  T
C540        C541   1.412       .  S
C541        C542   1.206       .  T
C543        C544   1.206       .  T
C544        C545   1.412       .  S
C545        C546   1.206       .  T
C547        C548   1.204       .  T
C549        C550   1.204       .  T
C551        C552   1.204       .  T
C553        C554   1.204       .  T
C555        C556   1.204       .  T
C557        C558   1.204       .  T
C559        C560   1.206       .  T
C560        C561   1.413       .  S
C561        C562   1.206       .  T
C563        C564   1.206       .  T
C564        C565   1.413       .  S
C565        C566   1.207       .  T
C567        C568   1.206       .  T
C568        C569   1.413       .  S
C569        C570   1.206       .  T
C571        C572   1.206       .  T
C572        C573   1.413       .  S
C573        C574   1.207       .  T
C575        C576   1.206       .  T
C576        C577   1.413       .  S
C577        C578   1.206       .  T
C579        C580   1.206       .  T
C580        C581   1.413       .  S
C581        C582   1.206       .  T
C583        C584   1.207       .  T
C584        C585   1.413       .  S
C585        C586   1.206       .  T
C587        C588   1.205       .  T
C588        C589   1.412       .  S
C589        C590   1.206       .  T
C591        C592   1.206       .  T
C592        C593   1.413       .  S
C593        C594   1.206       .  T
C595        C596   1.206       .  T
C596        C597   1.413       .  S
C597        C598   1.206       .  T
C599        C600   1.207       .  T
C600        C601   1.413       .  S
C601        C602   1.206       .  T
C603        C604   1.206       .  T
C604        C605   1.413       .  S
C605        C606   1.206       .  T
C607        C608   1.206       .  T
C608        C609   1.413       .  S
C609        C610   1.207       .  T
C611        C612   1.206       .  T
C612        C613   1.413       .  S
C613        C614   1.206       .  T
C615        C616   1.206       .  T
C616        C617   1.413       .  S
C617        C618   1.206       .  T
C619        C620   1.206       .  T
C620        C621   1.413       .  S
C621        C622   1.206       .  T
C623        C624   1.206       .  T
C624        C625   1.413       .  S
C625        C626   1.207       .  T
C627        C628   1.206       .  T
C628        C629   1.412       .  S
C629        C630   1.206       .  T
C631        C632   1.206       .  T
C632        C633   1.413       .  S
C633        C634   1.207       .  T
C635        C636   1.206       .  T
C636        C637   1.413       .  S
C637        C638   1.207       .  T
C639        C640   1.206       .  T
C640        C641   1.413       .  S
C641        C642   1.206       .  T
C643        C644   1.207       .  T
C644        C645   1.413       .  S
C645        C646   1.206       .  T
C647        C648   1.206       .  T
C648        C649   1.412       .  S
C649        C650   1.206       .  T
C651        C652   1.207       .  T
C652        C653   1.413       .  S
C653        C654   1.206       .  T
