geometry optimzed in LAMMPS
_audit_creation_date              2020-11-30 
_audit_creation_method            'lammps2cif' 
_symmetry_space_group_name_H-M    'P1' 
_symmetry_Int_Tables_number       1 
_symmetry_cell_setting            triclinic 
loop_ 
_symmetry_equiv_pos_as_xyz 
  x,y,z 
_cell_length_a                    61.89706969472778 
_cell_length_b                    62.20989521223253 
_cell_length_c                    62.132799126174554 
_cell_angle_alpha                 90.22602736895556 
_cell_angle_beta                  89.94879808946386 
_cell_angle_gamma                 89.94619204725265 
loop_ 
_atom_site_label 
_atom_site_type_symbol 
_atom_site_fract_x 
_atom_site_fract_y 
_atom_site_fract_z 
_atom_site_charge 
O1          O  0.77528145  0.65910332  0.79301921    -0.82930
C2          C  0.76649233  0.61953140  0.71163413     0.96420
O3          O  0.76463805  0.61116867  0.72995175    -0.72050
O4          O  0.80062468  0.62268726  0.74692471    -0.75640
Al5        Al  0.77280524  0.62242245  0.75736061     1.48980
C6          C  0.81578517  0.63476540  0.75266264     0.91670
O7          O  0.79544223  0.68285551  0.74026656    -0.81860
O8          O  0.73452736  0.67442682  0.75106863    -0.75420
Al9        Al  0.78481931  0.66949811  0.76543271     1.90120
O10         O  0.76578918  0.68169035  0.72094093    -0.74490
O11         O  0.72980265  0.63447973  0.73883313    -0.74340
O12         O  0.76403901  0.63967649  0.70958359    -0.80000
O13         O  0.74448649  0.62067069  0.76789583    -0.78200
O14         O  0.76939286  0.64999112  0.75127387    -1.14340
O15         O  0.78261358  0.62564941  0.78620493    -0.73530
C16         C  0.77706632  0.63999740  0.79930868     0.97180
C17         C  0.78411853  0.68973684  0.72498323     0.93580
Al18       Al  0.75013935  0.65710937  0.73158176     1.55560
O19         O  0.81201521  0.65168435  0.76403001    -0.78150
C20         C  0.72850850  0.62269608  0.75544599     0.97750
C21         C  0.74106506  0.68999938  0.76227087     0.92630
O22         O  0.76088798  0.69072423  0.76797801    -0.83470
O23         O  0.70915309  0.38614664  0.73406006    -0.82930
C24         C  0.79538217  0.41565244  0.74359019     0.96420
O25         O  0.77800456  0.42598377  0.74165348    -0.72050
O26         O  0.75848859  0.41612146  0.70610667    -0.75640
Al27       Al  0.74922897  0.41854988  0.73466758     1.48980
C28         C  0.74940105  0.40505423  0.69174772     0.91670
O29         O  0.75979629  0.35603483  0.71330119    -0.81860
O30         O  0.74915238  0.36683241  0.77441051    -0.75420
Al31       Al  0.73557657  0.37241736  0.72402546     1.90120
O32         O  0.77824535  0.35610510  0.74357378    -0.74490
O33         O  0.76654253  0.40533913  0.77846710    -0.74340
O34         O  0.79510714  0.39544910  0.74548728    -0.80000
O35         O  0.74004382  0.42300721  0.76327372    -0.78200
O36         O  0.75204138  0.39059369  0.73898668    -1.14340
O37         O  0.71939290  0.41870656  0.72645154    -0.73530
C38         C  0.70483618  0.40592588  0.73232769     0.97180
C39         C  0.77408016  0.34794641  0.72540329     0.93580
Al40       Al  0.77070272  0.38151556  0.75874540     1.55560
O41         O  0.73704490  0.38940301  0.69688002    -0.78150
C42         C  0.75228023  0.41991948  0.77924715     0.97750
C43         C  0.73654590  0.35250542  0.76745098     0.92630
O44         O  0.73156350  0.35191165  0.74760185    -0.83470
O45         O  0.75147201  0.57317227  0.87591703    -0.82930
C46         C  0.76164842  0.49142290  0.83732059     0.96420
O47         O  0.76159140  0.50935183  0.82796887    -0.72050
O48         O  0.72588032  0.52762949  0.83964535    -0.75640
Al49       Al  0.75436219  0.53736809  0.83837958     1.48980
C50         C  0.71127868  0.53421739  0.85210068     0.91670
O51         O  0.73140380  0.51916458  0.89774614    -0.81860
O52         O  0.79254150  0.53355227  0.89120410    -0.75420
Al53       Al  0.74193894  0.54546563  0.88566997     1.90120
O54         O  0.76243219  0.50193658  0.89723248    -0.74490
O55         O  0.79851203  0.52057926  0.85170679    -0.74340
O56         O  0.76591659  0.49040574  0.85712253    -0.80000
O57         O  0.78298831  0.54726561  0.83487581    -0.78200
O58         O  0.75818358  0.53192562  0.86606132    -1.14340
O59         O  0.74593840  0.56671313  0.84176308    -0.73530
C60         C  0.75068315  0.57958996  0.85670658     0.97180
C61         C  0.74299866  0.50337697  0.90321972     0.93580
Al62       Al  0.77826528  0.51317977  0.87378420     1.55560
O63         O  0.71575268  0.54563617  0.86842873    -0.78150
C64         C  0.79957609  0.53619496  0.83876800     0.97750
C65         C  0.78427703  0.54452513  0.90619629     0.92630
O66         O  0.76416693  0.54776409  0.90690070    -0.83470
O67         O  0.72370787  0.91018700  0.50493901    -0.82930
C68         C  0.80959472  0.88356049  0.49189175     0.96420
O69         O  0.79321263  0.87203762  0.48853298    -0.72050
O70         O  0.77382040  0.87699891  0.52415258    -0.75640
Al71       Al  0.76402327  0.87772998  0.49608218     1.48980
C72         C  0.76344847  0.88362851  0.54017139     0.91670
O73         O  0.77521594  0.93434428  0.52713414    -0.81860
O74         O  0.76096000  0.93322572  0.46517322    -0.75420
Al75       Al  0.75038338  0.92127167  0.51503284     1.90120
O76         O  0.79095600  0.94165670  0.49626479    -0.74490
O77         O  0.78081924  0.89670369  0.45486981    -0.74340
O78         O  0.80853445  0.90372226  0.48988657    -0.80000
O79         O  0.75480220  0.87643032  0.46719652    -0.78200
O80         O  0.76591752  0.90579117  0.49620524    -1.14340
O81         O  0.73422969  0.87652882  0.50398338    -0.73530
C82         C  0.71942146  0.89047368  0.50396012     0.97180
C83         C  0.78902647  0.94448596  0.51632389     0.93580
Al84       Al  0.78388969  0.91806617  0.47786247     1.55560
O85         O  0.75163401  0.90024375  0.53870231    -0.78150
C86         C  0.76693599  0.88195328  0.45189629     0.97750
C87         C  0.74783693  0.94544316  0.47491435     0.92630
O88         O  0.74564527  0.94465871  0.49522248    -0.83470
O89         O  0.73751503  0.21795545  0.86473961    -0.82930
C90         C  0.75533983  0.30241879  0.89287259     0.96420
O91         O  0.75243561  0.28610749  0.90443328    -0.72050
O92         O  0.71561350  0.26923821  0.89548080    -0.75640
Al93       Al  0.74339648  0.25771723  0.89779743     1.48980
C94         C  0.70036429  0.26151505  0.88462161     0.91670
O95         O  0.72253040  0.27070570  0.83604571    -0.81860
O96         O  0.78203727  0.25141047  0.84564075    -0.75420
Al97       Al  0.73053842  0.24505111  0.85153472     1.90120
O98         O  0.75515597  0.28460240  0.83445311    -0.74490
O99         O  0.78914801  0.26892978  0.88312841    -0.74340
O100        O  0.75951262  0.30064381  0.87311607    -0.80000
O101        O  0.77122171  0.24624937  0.90302996    -0.78200
O102        O  0.74778361  0.25938008  0.86961048    -1.14340
O103        O  0.73297855  0.22882307  0.89796291    -0.73530
C104        C  0.73640492  0.21392522  0.88460825     0.97180
C105        C  0.73569955  0.28427521  0.82838866     0.93580
Al106      Al  0.76963265  0.27502321  0.85979887     1.55560
O107        O  0.70413941  0.24907817  0.86875271    -0.78150
C108        C  0.78874595  0.25529061  0.89817840     0.97750
C109        C  0.77332427  0.23935689  0.83188747     0.92630
O110        O  0.75291908  0.23806483  0.83076651    -0.83470
O111        O  0.70152870  0.89952630  0.24851744    -0.82930
C112        C  0.78767290  0.93174970  0.24938213     0.96420
O113        O  0.77048390  0.94147368  0.25390845    -0.72050
O114        O  0.74620890  0.93361209  0.22114081    -0.75640
Al115      Al  0.74132224  0.93309263  0.25068241     1.48980
C116        C  0.73828774  0.92194853  0.20655445     0.91670
O117        O  0.75076239  0.87203844  0.22155630    -0.81860
O118        O  0.74954331  0.87741520  0.28303000    -0.75420
Al119      Al  0.72781281  0.88735017  0.23621016     1.90120
O120        O  0.77423119  0.87204032  0.24779743    -0.74490
O121        O  0.76561330  0.91567747  0.28881351    -0.74340
O122        O  0.78854596  0.91152650  0.25070821    -0.80000
O123        O  0.73656750  0.93442152  0.28096378    -0.78200
O124        O  0.74546251  0.90487251  0.25104996    -1.14340
O125        O  0.71134553  0.93306258  0.24680416    -0.73530
C126        C  0.69685662  0.91928593  0.24906277     0.97180
C127        C  0.76778140  0.86485949  0.23002900     0.93580
Al128      Al  0.76758294  0.89490248  0.26627023     1.55560
O129        O  0.72691312  0.90558245  0.21094855    -0.78150
C130        C  0.75131565  0.92920631  0.29403068     0.97750
C131        C  0.73506324  0.86450835  0.27694776     0.92630
O132        O  0.72650804  0.86593988  0.25848111    -0.83470
O133        O  0.78988384  0.02147679  0.12228421    -0.82930
C134        C  0.70554186  0.03011865  0.15827514     0.96420
O135        O  0.72364260  0.02958370  0.16738443    -0.72050
O136        O  0.74650377  0.99603610  0.15840605    -0.75640
Al137      Al  0.75232330  0.02561868  0.15846838     1.48980
C138        C  0.75322983  0.98157066  0.14582569     0.91670
O139        O  0.73796387  0.99998434  0.09695899    -0.81860
O140        O  0.74589365  0.06067796  0.10451252    -0.75420
Al141      Al  0.76272758  0.01181805  0.11134363     1.90120
O142        O  0.71746126  0.02853941  0.09791304    -0.74490
O143        O  0.73041715  0.06629349  0.14249802    -0.74340
O144        O  0.70422607  0.03143298  0.13806585    -0.80000
O145        O  0.75816672  0.05598143  0.16154724    -0.78200
O146        O  0.74717220  0.02740216  0.13031236    -1.14340
O147        O  0.78232608  0.02108586  0.15660932    -0.73530
C148        C  0.79574456  0.02268458  0.14159973     0.97180
C149        C  0.72135625  0.01003042  0.09096363     0.93580
Al150      Al  0.72641552  0.04509492  0.12134720     1.55560
O151        O  0.76275283  0.98604600  0.12840610    -0.78150
C152        C  0.74443460  0.07022504  0.15648748     0.97750
C153        C  0.76022083  0.05415862  0.09167649     0.92630
O154        O  0.76562546  0.03457400  0.09099456    -0.83470
O155        O  0.76435489  0.16192250  0.29957654    -0.82930
C156        C  0.73715700  0.13628824  0.21739988     0.96420
O157        O  0.73701601  0.12424817  0.23383596    -0.72050
O158        O  0.77241203  0.12488809  0.25495590    -0.75640
Al159      Al  0.74420713  0.12959055  0.26332949     1.48980
C160        C  0.78989785  0.13482319  0.25620365     0.91670
O161        O  0.77442417  0.18851975  0.24453225    -0.81860
O162        O  0.71574992  0.18492236  0.26920623    -0.75420
Al163      Al  0.76748936  0.17358031  0.27119077     1.90120
O164        O  0.74102247  0.19434265  0.23597990    -0.74490
O165        O  0.70234126  0.15006536  0.24809551    -0.74340
O166        O  0.73456088  0.15639914  0.21888385    -0.80000
O167        O  0.71510334  0.12977804  0.27310566    -0.78200
O168        O  0.74598022  0.15774412  0.25978688    -1.14340
O169        O  0.75140251  0.12991831  0.29235493    -0.73530
C170        C  0.75818918  0.14359790  0.30554439     0.97180
C171        C  0.76057019  0.19907779  0.23408525     0.93580
Al172      Al  0.72532365  0.17035894  0.24449592     1.55560
O173        O  0.79039268  0.15373979  0.26372302    -0.78150
C174        C  0.69934592  0.13594632  0.26208493     0.97750
C175        C  0.72745650  0.19778710  0.27997899     0.92630
O176        O  0.74792315  0.19596603  0.28040083    -0.83470
O177        O  0.80012714  0.28591500  0.12881092    -0.82930
C178        C  0.71413988  0.28761508  0.09619291     0.96420
O179        O  0.73137349  0.28398992  0.08604989    -0.72050
O180        O  0.75722422  0.31566353  0.09346971    -0.75640
Al181      Al  0.76090410  0.28591675  0.09439876     1.48980
C182        C  0.76631979  0.32996122  0.10457654     0.91670
O183        O  0.75219255  0.31526461  0.15502100    -0.81860
O184        O  0.75158805  0.25346894  0.15068188    -0.75420
Al185      Al  0.77461388  0.29972189  0.14035763     1.90120
O186        O  0.72787218  0.28975817  0.15527445    -0.74490
O187        O  0.73558275  0.24804083  0.11193151    -0.74340
O188        O  0.71364816  0.28628517  0.11636885    -0.80000
O189        O  0.76459182  0.25554525  0.09296699    -0.78200
O190        O  0.75661086  0.28548397  0.12271346    -1.14340
O191        O  0.79136140  0.28849139  0.09492924    -0.73530
C192        C  0.80526584  0.28504416  0.10918257     0.97180
C193        C  0.73482986  0.30743397  0.16211296     0.93580
Al194      Al  0.73420126  0.27067730  0.13277361     1.55560
O195        O  0.77702086  0.32507075  0.12140125    -0.78150
C196        C  0.74968905  0.24273881  0.09823250     0.97750
C197        C  0.76493394  0.25976335  0.16464836     0.92630
O198        O  0.77452543  0.27771074  0.16273946    -0.83470
O199        O  0.75801364  0.13789762  0.95437502    -0.82930
C200        C  0.74317009  0.17668844  0.03572478     0.96420
O201        O  0.74564253  0.18556685  0.01771291    -0.72050
O202        O  0.78283234  0.17417861  0.00116291    -0.75640
Al203      Al  0.75452254  0.17507498  0.99023611     1.48980
C204        C  0.79770301  0.16188506  0.99464475     0.91670
O205        O  0.77734953  0.11606362  0.00835751    -0.81860
O206        O  0.71677486  0.12264938  0.99343808    -0.75420
Al207      Al  0.76721773  0.12809190  0.98214363     1.90120
O208        O  0.74619277  0.11663759  0.02548113    -0.74490
O209        O  0.70990057  0.16148225  0.00598434    -0.74340
O210        O  0.74147091  0.15658800  0.03708179    -0.80000
O211        O  0.72628306  0.17765434  0.97928479    -0.78200
O212        O  0.75076329  0.14751652  0.99565338    -1.14340
O213        O  0.76415407  0.17177607  0.96111116    -0.73530
C214        C  0.75905840  0.15707474  0.94807544     0.97180
C215        C  0.76568173  0.11085538  0.02413318     0.93580
Al216      Al  0.73029132  0.13973667  0.01397508     1.55560
O217        O  0.79342667  0.14568517  0.98282905    -0.78150
C218        C  0.70931443  0.17393320  0.98999849     0.97750
C219        C  0.72468244  0.10799327  0.98193129     0.92630
O220        O  0.74486846  0.10666314  0.97911069    -0.83470
O221        O  0.74346451  0.07798627  0.38466823    -0.82930
C222        C  0.75598138  0.99174960  0.35836275     0.96420
O223        O  0.75481872  0.00796795  0.34619277    -0.72050
O224        O  0.71998907  0.02995679  0.35203259    -0.75640
Al225      Al  0.74923008  0.03772811  0.35134242     1.48980
C226        C  0.70468749  0.03727158  0.36321139     0.91670
O227        O  0.72437347  0.02654005  0.41151679    -0.81860
O228        O  0.78581143  0.04199352  0.40320567    -0.75420
Al229      Al  0.73472168  0.05147356  0.39705082     1.90120
O230        O  0.75646016  0.01226505  0.41607493    -0.74490
O231        O  0.79253937  0.02072146  0.36753901    -0.74340
O232        O  0.75919029  0.99369392  0.37829318    -0.80000
O233        O  0.77870713  0.04553946  0.34718176    -0.78200
O234        O  0.75176392  0.03598048  0.37956509    -1.14340
O235        O  0.74318456  0.06771264  0.35081526    -0.73530
C236        C  0.74509150  0.08220406  0.36494529     0.97180
C237        C  0.73658974  0.01299645  0.42033694     0.93580
Al238      Al  0.77178211  0.01870754  0.39049730     1.55560
O239        O  0.70862795  0.04921929  0.37933490    -0.78150
C240        C  0.79462889  0.03407068  0.35251218     0.97750
C241        C  0.77761309  0.05431297  0.41710610     0.92630
O242        O  0.75724614  0.05671140  0.41843723    -0.83470
O243        O  0.71009350  0.40859457  0.00062405    -0.82930
C244        C  0.79408796  0.36959417  0.99418893     0.96420
O245        O  0.77584110  0.36103246  0.99286704    -0.72050
O246        O  0.75515546  0.37399597  0.02665327    -0.75640
Al247      Al  0.74793145  0.37210088  0.99750181     1.48980
C248        C  0.74984239  0.38763281  0.04074205     0.91670
O249        O  0.76297010  0.43587783  0.01727787    -0.81860
O250        O  0.75733275  0.42366397  0.95882561    -0.75420
Al251      Al  0.73842098  0.42002632  0.00773464     1.90120
O252        O  0.78577099  0.42993813  0.99107295    -0.74490
O253        O  0.76942655  0.38358531  0.95535653    -0.74340
O254        O  0.79629828  0.38939549  0.99062140    -0.80000
O255        O  0.74044717  0.36792431  0.96820354    -0.78200
O256        O  0.75381902  0.39972624  0.99362200    -1.14340
O257        O  0.71889540  0.37506700  0.00336349    -0.73530
C258        C  0.70463419  0.38924174  0.00219073     0.97180
C259        C  0.78049917  0.43981509  0.00788300     0.93580
Al260      Al  0.77527986  0.40624350  0.97555153     1.55560
O261        O  0.74014203  0.40498355  0.03559577    -0.78150
C262        C  0.75375774  0.37074307  0.95306113     0.97750
C263        C  0.74247369  0.43671807  0.96353286     0.92630
O264        O  0.73498830  0.43786198  0.98254179    -0.83470
O265        O  0.76624727  0.64949994  0.53705480    -0.82930
C266        C  0.78083253  0.66481309  0.44875442     0.96420
O267        O  0.78518070  0.67790976  0.46373634    -0.72050
O268        O  0.75038033  0.68249612  0.48593295    -0.75640
Al269      Al  0.77903221  0.67664561  0.49393791     1.48980
C270        C  0.73385770  0.67799566  0.49665861     0.91670
O271        O  0.73964668  0.62645495  0.48795016    -0.81860
O272        O  0.80065242  0.61476138  0.50266304    -0.75420
Al273      Al  0.75395635  0.63826704  0.51152296     1.90120
O274        O  0.76739328  0.61051306  0.47280983    -0.74490
O275        O  0.81716265  0.64830682  0.47939169    -0.74340
O276        O  0.78104694  0.64483118  0.45217017    -0.80000
O277        O  0.80820823  0.67412352  0.50178887    -0.78200
O278        O  0.77470858  0.64862381  0.49471945    -1.14340
O279        O  0.77336841  0.68148325  0.52388838    -0.73530
C280        C  0.77054969  0.66910057  0.53972088     0.97180
C281        C  0.74713908  0.61262262  0.47518206     0.93580
Al282      Al  0.79049713  0.63100688  0.47813154     1.55560
O283        O  0.73425961  0.66217459  0.50928806    -0.78150
C284        C  0.82232082  0.66438519  0.49099655     0.97750
C285        C  0.78792635  0.60599373  0.51606530     0.92630
O286        O  0.76855466  0.61211019  0.51779899    -0.83470
O287        O  0.80708660  0.50518855  0.60697327    -0.82930
C288        C  0.72561424  0.51565072  0.64563977     0.96420
O289        O  0.74359322  0.51646525  0.65494932    -0.72050
O290        O  0.76126807  0.48098879  0.64307172    -0.75640
Al291      Al  0.77129676  0.50924338  0.64436669     1.48980
C292        C  0.76684332  0.46617420  0.63046149     0.91670
O293        O  0.75261658  0.48813725  0.58338854    -0.81860
O294        O  0.76706334  0.54844495  0.59278774    -0.75420
Al295      Al  0.77890469  0.49738470  0.59667885     1.90120
O296        O  0.73531964  0.51884889  0.58542546    -0.74490
O297        O  0.75359121  0.55308490  0.63278614    -0.74340
O298        O  0.72415783  0.52012551  0.62590771    -0.80000
O299        O  0.78144622  0.53790957  0.64819654    -0.78200
O300        O  0.76561772  0.51333899  0.61670803    -1.14340
O301        O  0.80027182  0.50038182  0.64106663    -0.73530
C302        C  0.81344561  0.50385188  0.62615097     0.97180
C303        C  0.73700943  0.50002372  0.57809914     0.93580
Al304      Al  0.74662753  0.53349721  0.60966538     1.55560
O305        O  0.77742570  0.47037907  0.61336989    -0.78150
C306        C  0.76931921  0.55411824  0.64572013     0.97750
C307        C  0.77915598  0.54105111  0.57814024     0.92630
O308        O  0.78245249  0.52094727  0.57643544    -0.83470
O309        O  0.81807421  0.78389392  0.62856808    -0.82930
C310        C  0.73017106  0.76739629  0.60848119     0.96420
O311        O  0.74592276  0.76400973  0.59580645    -0.72050
O312        O  0.76713944  0.79907145  0.59534403    -0.75640
Al313      Al  0.77627940  0.77120442  0.59908268     1.48980
C314        C  0.77638839  0.81597895  0.60114766     0.91670
O315        O  0.76692115  0.80662360  0.65403206    -0.81860
O316        O  0.78252069  0.74471438  0.65490822    -0.75420
Al317      Al  0.79148613  0.79398613  0.64037114     1.90120
O318        O  0.75317923  0.77619994  0.66529542    -0.74490
O319        O  0.75932503  0.73243887  0.62183912    -0.74340
O320        O  0.73296359  0.76780423  0.62861646    -0.80000
O321        O  0.78549163  0.74231613  0.60051941    -0.78200
O322        O  0.77547622  0.77412380  0.62703293    -1.14340
O323        O  0.80633227  0.77831168  0.59576492    -0.73530
C324        C  0.82173079  0.78033679  0.60895164     0.97180
C325        C  0.75454068  0.79644139  0.66645976     0.93580
Al326      Al  0.75842412  0.75666362  0.64169215     1.55560
O327        O  0.78836331  0.81608839  0.61779187    -0.78150
C328        C  0.77317050  0.72791922  0.60752604     0.97750
C329        C  0.79499362  0.75511548  0.66706144     0.92630
O330        O  0.79758315  0.77535109  0.66502578    -0.83470
O331        O  0.76111739  0.72853451  0.36596015    -0.82930
C332        C  0.77604616  0.81568564  0.38944943     0.96420
O333        O  0.77748029  0.79936052  0.40122224    -0.72050
O334        O  0.74039636  0.78221048  0.39484698    -0.75640
Al335      Al  0.76800408  0.77066499  0.39572159     1.48980
C336        C  0.72478101  0.77034886  0.38995916     0.91670
O337        O  0.73826612  0.77926976  0.33930679    -0.81860
O338        O  0.79998127  0.76512632  0.34017200    -0.75420
Al339      Al  0.75035434  0.75483779  0.35309167     1.90120
O340        O  0.76911318  0.79559456  0.33208062    -0.74490
O341        O  0.81073142  0.78409141  0.37679165    -0.74340
O342        O  0.77727568  0.81375790  0.36929110    -0.80000
O343        O  0.79570739  0.75948747  0.39695609    -0.78200
O344        O  0.76887926  0.77117989  0.36780963    -1.14340
O345        O  0.75824404  0.74156969  0.39859530    -0.73530
C346        C  0.76033959  0.72566262  0.38611443     0.97180
C347        C  0.74885050  0.79385958  0.32994298     0.93580
Al348      Al  0.78790018  0.78822207  0.35529331     1.55560
O349        O  0.72651002  0.75698721  0.37445597    -0.78150
C350        C  0.81205661  0.77032685  0.39181052     0.97750
C351        C  0.79025808  0.75254646  0.32754853     0.92630
O352        O  0.77005288  0.74949480  0.32930481    -0.83470
O353        O  0.47447587  0.79569576  0.61340790    -0.82930
C354        C  0.56157913  0.79104902  0.63968476     0.96420
O355        O  0.54544186  0.78705509  0.65156119    -0.72050
O356        O  0.52036989  0.81931356  0.64851834    -0.75640
Al357      Al  0.51519454  0.78988556  0.64632015     1.48980
C358        C  0.51099239  0.83453101  0.63922299     0.91670
O359        O  0.52412735  0.82062607  0.58798553    -0.81860
O360        O  0.51613491  0.75770419  0.59138082    -0.75420
Al361      Al  0.50052350  0.80687303  0.60188056     1.90120
O362        O  0.54215066  0.79097700  0.58174244    -0.74490
O363        O  0.53796039  0.75140182  0.62727765    -0.74340
O364        O  0.56052081  0.78865189  0.61953188    -0.80000
O365        O  0.51023326  0.75962130  0.64744549    -0.78200
O366        O  0.51755729  0.79017898  0.61802179    -1.14340
O367        O  0.48451551  0.79341604  0.64714468    -0.73530
C368        C  0.46992232  0.79350824  0.63298171     0.97180
C369        C  0.53835262  0.81040832  0.57781762     0.93580
Al370      Al  0.53749417  0.77353790  0.60584959     1.55560
O371        O  0.50052169  0.83137922  0.62191245    -0.78150
C372        C  0.52469099  0.74645859  0.64183669     0.97750
C373        C  0.50225546  0.76521067  0.57849029     0.92630
O374        O  0.49723278  0.78511394  0.57898691    -0.83470
O375        O  0.63842661  0.82500334  0.49213381    -0.82930
C376        C  0.66744598  0.74070358  0.50856466     0.96420
O377        O  0.67743036  0.75761007  0.51390758    -0.72050
O378        O  0.67744521  0.77955464  0.47933727    -0.75640
Al379      Al  0.67103735  0.78682352  0.50735491     1.48980
C380        C  0.66975960  0.78574073  0.46177637     0.91670
O381        O  0.61699247  0.77236803  0.46941831    -0.81860
O382        O  0.61225136  0.78554997  0.53112121    -0.75420
Al383      Al  0.62898097  0.79741284  0.48249408     1.90120
O384        O  0.60826024  0.75595671  0.49921070    -0.74490
O385        O  0.64843998  0.76631957  0.54471525    -0.74340
O386        O  0.64699427  0.74040751  0.50818695    -0.80000
O387        O  0.66730165  0.79460380  0.53655828    -0.78200
O388        O  0.64322670  0.78279682  0.50295987    -1.14340
O389        O  0.67131561  0.81629913  0.50144209    -0.73530
C390        C  0.65721533  0.83024557  0.49765756     0.97180
C391        C  0.60643904  0.75818046  0.47916324     0.93580
Al392      Al  0.62985076  0.76369051  0.51950802     1.55560
O393        O  0.65169114  0.79527938  0.46105945    -0.78150
C394        C  0.66181604  0.78073646  0.55014755     0.97750
C395        C  0.60099673  0.79868252  0.52034905     0.92630
O396        O  0.60413670  0.80191112  0.50043879    -0.83470
O397        O  0.51474216  0.65833410  0.78992107    -0.82930
C398        C  0.53321166  0.68075783  0.70335934     0.96420
O399        O  0.53527710  0.69254853  0.71978512    -0.72050
O400        O  0.49920910  0.69152466  0.74000788    -0.75640
Al401      Al  0.52745100  0.68818969  0.74905307     1.48980
C402        C  0.48199264  0.68285064  0.74628635     0.91670
O403        O  0.49487739  0.63045679  0.73829509    -0.81860
O404        O  0.55626091  0.63086286  0.75280037    -0.75420
Al405      Al  0.50629309  0.64537101  0.76287680     1.90120
O406        O  0.52563094  0.62278177  0.72277351    -0.74490
O407        O  0.56758233  0.66629954  0.73241454    -0.74340
O408        O  0.53292700  0.66052674  0.70495370    -0.80000
O409        O  0.55656924  0.68752424  0.75830709    -0.78200
O410        O  0.52579742  0.65980675  0.74741765    -1.14340
O411        O  0.51960121  0.69102383  0.77816358    -0.73530
C412        C  0.51744867  0.67813993  0.79345554     0.97180
C413        C  0.50562013  0.61999134  0.72458462     0.93580
Al414      Al  0.54403326  0.64614311  0.72984266     1.55560
O415        O  0.48271083  0.66619346  0.75811867    -0.78150
C416        C  0.57136935  0.68100909  0.74597321     0.97750
C417        C  0.54657145  0.61937447  0.76646175     0.92630
O418        O  0.52639388  0.62188264  0.76994425    -0.83470
O419        O  0.62532714  0.47518691  0.75379199    -0.82930
C420        C  0.66655062  0.55589448  0.74909180     0.96420
O421        O  0.67465730  0.53762358  0.74634355    -0.72050
O422        O  0.66113387  0.52041078  0.78186777    -0.75640
Al423      Al  0.66210900  0.51075797  0.75372028     1.48980
C424        C  0.64848755  0.51355324  0.79616634     0.91670
O425        O  0.60121273  0.52861988  0.77681811    -0.81860
O426        O  0.60860630  0.52243592  0.71640149    -0.75420
Al427      Al  0.61449037  0.50309602  0.76470467     1.90120
O428        O  0.60675247  0.55062461  0.74985276    -0.74490
O429        O  0.64957497  0.53017907  0.71113177    -0.74340
O430        O  0.64667746  0.55848872  0.74647800    -0.80000
O431        O  0.66387119  0.50096668  0.72519193    -0.78200
O432        O  0.63455451  0.51757069  0.75021843    -1.14340
O433        O  0.65850021  0.48209016  0.76278383    -0.73530
C434        C  0.64459635  0.46881610  0.75674978     0.97180
C435        C  0.59825902  0.54657657  0.76776385     0.93580
Al436      Al  0.62833297  0.53866893  0.73234657     1.55560
O437        O  0.63184108  0.50235006  0.79138506    -0.78150
C438        C  0.66084729  0.51319957  0.70923825     0.97750
C439        C  0.59302240  0.51132935  0.72296026     0.92630
O440        O  0.59326723  0.50282772  0.74149535    -0.83470
O441        O  0.65250994  0.83443523  0.75982461    -0.82930
C442        C  0.62879911  0.74952363  0.73719280     0.96420
O443        O  0.61587025  0.76521170  0.73889085    -0.72050
O444        O  0.61997161  0.78260938  0.77602507    -0.75640
Al445      Al  0.62042979  0.79422502  0.74864542     1.48980
C446        C  0.62818187  0.79009803  0.79280291     0.91670
O447        O  0.67870099  0.77926327  0.77525087    -0.81860
O448        O  0.67446217  0.80394457  0.71584811    -0.75420
Al449      Al  0.66499840  0.80641949  0.76686480     1.90120
O450        O  0.68597010  0.77011080  0.74186562    -0.74490
O451        O  0.63914464  0.78404025  0.70429470    -0.74340
O452        O  0.64860104  0.75246828  0.73386277    -0.80000
O453        O  0.61768346  0.80608885  0.72111535    -0.78200
O454        O  0.64879123  0.79314733  0.74716859    -1.14340
O455        O  0.61884208  0.82320421  0.75895424    -0.73530
C456        C  0.63235691  0.83840636  0.75891163     0.97180
C457        C  0.68787414  0.76670047  0.76184484     0.93580
Al458      Al  0.66111979  0.77886609  0.72566744     1.55560
O459        O  0.64463779  0.80231358  0.79131130    -0.78150
C460        C  0.62391313  0.79755257  0.70390525     0.97750
C461        C  0.68967862  0.81238613  0.72625721     0.92630
O462        O  0.68888939  0.81302524  0.74676890    -0.83470
O463        O  0.38554954  0.77764767  0.69430643    -0.82930
C464        C  0.41625667  0.78803668  0.77962480     0.96420
O465        O  0.42629731  0.79204969  0.76242945    -0.72050
O466        O  0.42491294  0.76008872  0.73647067    -0.75640
Al467      Al  0.41910607  0.78924322  0.73306676     1.48980
C468        C  0.41528204  0.74350888  0.73003950     0.91670
O469        O  0.36140654  0.75416717  0.74579935    -0.81860
O470        O  0.36151085  0.81615557  0.73831904    -0.75420
Al471      Al  0.37504090  0.76775134  0.72164988     1.90120
O472        O  0.35615087  0.78277212  0.76542526    -0.74490
O473        O  0.39834473  0.82551564  0.75783163    -0.74340
O474        O  0.39580909  0.78832119  0.78033709    -0.80000
O475        O  0.41698079  0.81935928  0.72880259    -0.78200
O476        O  0.39095361  0.78598421  0.73761449    -1.14340
O477        O  0.41832698  0.78680728  0.70333228    -0.73530
C478        C  0.40430836  0.78352188  0.68926010     0.97180
C479        C  0.35232674  0.76339997  0.76140322     0.93580
Al480      Al  0.37878888  0.80177866  0.75850034     1.55560
O481        O  0.39615433  0.74441985  0.72269705    -0.78150
C482        C  0.41205363  0.83153305  0.74418947     0.97750
C483        C  0.34997389  0.80817906  0.72350742     0.92630
O484        O  0.35167109  0.78849014  0.71799514    -0.83470
O485        O  0.52771358  0.74391901  0.87614278    -0.82930
C486        C  0.52113605  0.83198980  0.85534268     0.96420
O487        O  0.52461937  0.81676366  0.84228553    -0.72050
O488        O  0.55789180  0.79506515  0.85353863    -0.75640
Al489      Al  0.52966308  0.78680412  0.84624889     1.48980
C490        C  0.57084477  0.78269287  0.86273807     0.91670
O491        O  0.54420501  0.79302620  0.91003287    -0.81860
O492        O  0.48452683  0.77834652  0.89159473    -0.75420
Al493      Al  0.53576153  0.76908742  0.89193682     1.90120
O494        O  0.51167128  0.80754637  0.90952417    -0.74490
O495        O  0.48324039  0.80078419  0.85639185    -0.74340
O496        O  0.51336246  0.82846543  0.87369394    -0.80000
O497        O  0.50203174  0.77894064  0.83630642    -0.78200
O498        O  0.52183744  0.78620554  0.87344500    -1.14340
O499        O  0.53627386  0.75657779  0.84428685    -0.73530
C500        C  0.53065427  0.74111631  0.85622363     0.97180
C501        C  0.52995611  0.80532233  0.91818854     0.93580
Al502      Al  0.49999482  0.80245927  0.88215957     1.55560
O503        O  0.56405063  0.77017244  0.87733589    -0.78150
C504        C  0.48445330  0.78811724  0.84054895     0.97750
C505        C  0.49078304  0.76604443  0.90636159     0.92630
O506        O  0.51079414  0.76352721  0.90994648    -0.83470
O507        O  0.90620930  0.76799351  0.54443227    -0.82930
C508        C  0.87119902  0.77972331  0.46130111     0.96420
O509        O  0.86126120  0.78122443  0.47889735    -0.72050
O510        O  0.87011599  0.74530372  0.49787235    -0.75640
Al511      Al  0.87014159  0.77399679  0.50712562     1.48980
C512        C  0.88161534  0.72980074  0.50408739     0.91670
O513        O  0.92968452  0.74847646  0.48984608    -0.81860
O514        O  0.92370240  0.80955582  0.50494693    -0.75420
Al515      Al  0.91679289  0.75904100  0.51622825     1.90120
O516        O  0.93124038  0.77971589  0.47363116    -0.74490
O517        O  0.88525909  0.81648630  0.48930157    -0.74340
O518        O  0.89130980  0.78298570  0.46053840    -0.80000
O519        O  0.86763249  0.80310508  0.51655502    -0.78200
O520        O  0.89818245  0.77614581  0.50240609    -1.14340
O521        O  0.87189886  0.76601665  0.53618306    -0.73530
C522        C  0.88651699  0.76791975  0.55000833     0.97180
C523        C  0.93676224  0.76031050  0.47488770     0.93580
Al524      Al  0.90724852  0.79562646  0.48371048     1.55560
O525        O  0.89842807  0.73327796  0.51529435    -0.78150
C526        C  0.87180473  0.81879889  0.50441367     0.97750
C527        C  0.93928329  0.80067279  0.51441931     0.92630
O528        O  0.93902790  0.78079021  0.51880588    -0.83470
O529        O  0.87240196  0.77497877  0.18763054    -0.82930
C530        C  0.90134298  0.77929326  0.27528048     0.96420
O531        O  0.91208730  0.77836465  0.25824509    -0.72050
O532        O  0.90107229  0.74438590  0.23675478    -0.75640
Al533      Al  0.90436903  0.77341918  0.22937054     1.48980
C534        C  0.89115050  0.73080074  0.22542662     0.91670
O535        O  0.84474355  0.74965736  0.23744151    -0.81860
O536        O  0.84932533  0.81164193  0.23139520    -0.75420
Al537      Al  0.85881018  0.76306557  0.21379828     1.90120
O538        O  0.84412231  0.77764571  0.25945802    -0.74490
O539        O  0.88929226  0.81782939  0.24636938    -0.74340
O540        O  0.88168161  0.78389941  0.27469634    -0.80000
O541        O  0.90956778  0.80187140  0.22197365    -0.78200
O542        O  0.87646901  0.77786930  0.23143079    -1.14340
O543        O  0.90451172  0.76755193  0.19997511    -0.73530
C544        C  0.89252031  0.77193925  0.18435952     0.97180
C545        C  0.83907308  0.75843148  0.25490187     0.93580
Al546      Al  0.86672179  0.79632728  0.25112019     1.55560
O547        O  0.87667194  0.73693111  0.21231378    -0.78150
C548        C  0.90513821  0.81810240  0.23331896     0.97750
C549        C  0.83440587  0.80370467  0.22018781     0.92630
O550        O  0.83615895  0.78484009  0.21264631    -0.83470
O551        O  0.24725486  0.73432537  0.84992564    -0.82930
C552        C  0.25675428  0.81985333  0.87923900     0.96420
O553        O  0.25420028  0.80312393  0.89031782    -0.72050
O554        O  0.22106941  0.78123612  0.88096956    -0.75640
Al555      Al  0.24991506  0.77379704  0.88410426     1.48980
C556        C  0.20701941  0.77470541  0.86805863     0.91670
O557        O  0.23300934  0.78692020  0.81990950    -0.81860
O558        O  0.29247571  0.77089824  0.83572205    -0.75420
Al559      Al  0.24066931  0.76147965  0.83649549     1.90120
O560        O  0.26517400  0.80123430  0.82164637    -0.74490
O561        O  0.29440917  0.79122012  0.87235940    -0.74340
O562        O  0.26313466  0.81881388  0.85992756    -0.80000
O563        O  0.27873413  0.76635604  0.89149334    -0.78200
O564        O  0.25563182  0.77639680  0.85618171    -1.14340
O565        O  0.24401526  0.74395523  0.88371617    -0.73530
C566        C  0.24700836  0.72965847  0.86969219     0.97180
C567        C  0.24709153  0.79988341  0.81281207     0.93580
Al568      Al  0.27690308  0.79389683  0.84801118     1.55560
O569        O  0.21244101  0.76439666  0.85116197    -0.78150
C570        C  0.29459524  0.77840760  0.88777955     0.97750
C571        C  0.28585581  0.75878498  0.82075475     0.92630
O572        O  0.26571366  0.75576000  0.81808182    -0.83470
O573        O  0.30489657  0.79062916  0.11692641    -0.82930
C574        C  0.22077880  0.77456910  0.08015926     0.96420
O575        O  0.23917438  0.77546687  0.07191890    -0.72050
O576        O  0.25805463  0.81144586  0.07954158    -0.75640
Al577      Al  0.26687134  0.78274400  0.08126413     1.48980
C578        C  0.26447072  0.82720013  0.09062240     0.91670
O579        O  0.25272067  0.81288775  0.13906554    -0.81860
O580        O  0.26079319  0.75257439  0.13883759    -0.75420
Al581      Al  0.27718593  0.80042893  0.12656232     1.90120
O582        O  0.23082937  0.78515167  0.14002735    -0.74490
O583        O  0.24809283  0.74154079  0.09997093    -0.74340
O584        O  0.21884563  0.77517318  0.10037890    -0.80000
O585        O  0.27543052  0.75332667  0.08076572    -0.78200
O586        O  0.26182000  0.78267278  0.10921048    -1.14340
O587        O  0.29580630  0.79016972  0.08315035    -0.73530
C588        C  0.31011680  0.79061784  0.09745957     0.97180
C589        C  0.23554118  0.80424814  0.14513906     0.93580
Al590      Al  0.24146821  0.76512494  0.11927795     1.55560
O591        O  0.27639660  0.82455976  0.10697234    -0.78150
C592        C  0.26276078  0.73826535  0.08605282     0.97750
C593        C  0.27472837  0.76090053  0.15103712     0.92630
O594        O  0.28025654  0.78028082  0.14917234    -0.83470
O595        O  0.12449348  0.82893082  0.96019831    -0.82930
C596        C  0.15517577  0.74681297  0.96983090     0.96420
O597        O  0.15860192  0.76344296  0.95883163    -0.72050
O598        O  0.15452539  0.80144599  0.94061839    -0.75640
Al599      Al  0.15479609  0.79136228  0.96955610     1.48980
C600        C  0.14200151  0.79554563  0.92592642     0.91670
O601        O  0.08886978  0.77794263  0.95126676    -0.81860
O602        O  0.09413797  0.78411561  0.00276179    -0.75420
Al603      Al  0.10816184  0.80173854  0.95687528     1.90120
O604        O  0.10151537  0.75275963  0.97237605    -0.74490
O605        O  0.13459178  0.77932249  0.01609020    -0.74340
O606        O  0.14121003  0.74710018  0.98495126    -0.80000
O607        O  0.16388217  0.78279446  0.99720560    -0.78200
O608        O  0.12671036  0.78700345  0.97321152    -1.14340
O609        O  0.15235042  0.81895660  0.98011967    -0.73530
C610        C  0.14018184  0.83343148  0.97284178     0.97180
C611        C  0.08928510  0.75859261  0.95738362     0.93580
Al612      Al  0.11829980  0.76752206  0.99238465     1.55560
O613        O  0.12230950  0.79286309  0.93025678    -0.78150
C614        C  0.15488454  0.78011274  0.01513366     0.97750
C615        C  0.08527868  0.80172121  0.99761637     0.92630
O616        O  0.09081393  0.81147790  0.98067159    -0.83470
O617        O  0.95562242  0.79304966  0.09803229    -0.82930
C618        C  0.04303222  0.78450893  0.12517183     0.96420
O619        O  0.02563936  0.78364025  0.13543000    -0.72050
O620        O  0.00478845  0.81890462  0.13025623    -0.75640
Al621      Al  0.99693133  0.78985188  0.12918094     1.48980
C622        C  0.99485842  0.83400303  0.12114637     0.91670
O623        O  0.00519234  0.81785910  0.06842607    -0.81860
O624        O  0.99824887  0.75617804  0.07396875    -0.75420
Al625      Al  0.98181167  0.80489112  0.08463041     1.90120
O626        O  0.02563273  0.78903766  0.06595772    -0.74490
O627        O  0.01657344  0.74923147  0.11046964    -0.74340
O628        O  0.04286747  0.78460907  0.10481528    -0.80000
O629        O  0.98927916  0.75996942  0.13032806    -0.78200
O630        O  0.99942754  0.78894819  0.10087305    -1.14340
O631        O  0.96744286  0.79727357  0.13064981    -0.73530
C632        C  0.95230915  0.79262378  0.11812267     0.97180
C633        C  0.02062556  0.80757500  0.05972385     0.93580
Al634      Al  0.01912263  0.77138087  0.08954837     1.55560
O635        O  0.98307649  0.83031576  0.10454535    -0.78150
C636        C  0.00207681  0.74527344  0.12415809     0.97750
C637        C  0.98492223  0.76360700  0.06070587     0.92630
O638        O  0.97826672  0.78292466  0.06212869    -0.83470
O639        O  0.14156728  0.84234748  0.24065301    -0.82930
C640        C  0.10905726  0.75823179  0.22741369     0.96420
O641        O  0.09906653  0.77574997  0.22471076    -0.72050
O642        O  0.10350079  0.79935013  0.25813140    -0.75640
Al643      Al  0.10686022  0.80492958  0.22888298     1.48980
C644        C  0.11509729  0.80307233  0.27432914     0.91670
O645        O  0.16740866  0.78916173  0.25799091    -0.81860
O646        O  0.16121218  0.80099867  0.19731677    -0.75420
Al647      Al  0.15259447  0.81433024  0.24758889     1.90120
O648        O  0.16969258  0.77204301  0.22754775    -0.74490
O649        O  0.12428789  0.78224513  0.18969557    -0.74340
O650        O  0.12944587  0.75735028  0.22539203    -0.80000
O651        O  0.10708485  0.81133578  0.19888880    -0.78200
O652        O  0.13502240  0.79986052  0.22969071    -1.14340
O653        O  0.10811563  0.83447079  0.23315622    -0.73530
C654        C  0.12267984  0.84805815  0.23597128     0.97180
C655        C  0.17606283  0.77495275  0.24638481     0.93580
Al656      Al  0.14544443  0.77999413  0.21162840     1.55560
O657        O  0.13384712  0.81110542  0.27248654    -0.78150
C658        C  0.11117053  0.79693070  0.18526475     0.97750
C659        C  0.17374594  0.81504440  0.20515923     0.92630
O660        O  0.17374168  0.81953736  0.22516468    -0.83470
O661        O  0.01729845  0.74146070  0.36317392    -0.82930
C662        C  0.99977186  0.82713372  0.33645230     0.96420
O663        O  0.00051490  0.81013811  0.32545376    -0.72050
O664        O  0.03820129  0.79196587  0.32952268    -0.75640
Al665      Al  0.00977059  0.78169279  0.33147985     1.48980
C666        C  0.05426287  0.78284271  0.33790202     0.91670
O667        O  0.04071682  0.79293320  0.38846249    -0.81860
O668        O  0.97935052  0.77978719  0.38977099    -0.75420
Al669      Al  0.02830504  0.76818017  0.37504027     1.90120
O670        O  0.01046924  0.81083488  0.39407248    -0.74490
O671        O  0.96737656  0.79580044  0.35289578    -0.74340
O672        O  0.00018354  0.82631582  0.35666186    -0.80000
O673        O  0.98147024  0.77148121  0.33146190    -0.78200
O674        O  0.00973401  0.78396146  0.35983362    -1.14340
O675        O  0.01879938  0.75233043  0.32981943    -0.73530
C676        C  0.01629313  0.73742133  0.34324218     0.97180
C677        C  0.03052312  0.80845138  0.39685707     0.93580
Al678      Al  0.99095190  0.80164237  0.37246790     1.55560
O679        O  0.05189799  0.77021578  0.35383399    -0.78150
C680        C  0.96517921  0.78140294  0.33862282     0.97750
C681        C  0.98906767  0.76692141  0.40195615     0.92630
O682        O  0.00905644  0.76327417  0.39935535    -0.83470
O683        O  0.38740791  0.76682209  0.03379188    -0.82930
C684        C  0.36006105  0.78848496  0.95002020     0.96420
O685        O  0.35006323  0.78621876  0.96735497    -0.72050
O686        O  0.35799011  0.74778423  0.98012089    -0.75640
Al687      Al  0.35683016  0.77460266  0.99365615     1.48980
C688        C  0.36811436  0.73170911  0.98722446     0.91670
O689        O  0.41843466  0.75116923  0.98263160    -0.81860
O690        O  0.41098817  0.81000058  0.99848143    -0.75420
Al691      Al  0.40173728  0.75956550  0.00699154     1.90120
O692        O  0.41925481  0.78214364  0.96557983    -0.74490
O693        O  0.37330778  0.81915629  0.98266669    -0.74340
O694        O  0.38042168  0.78919957  0.94992859    -0.80000
O695        O  0.35399673  0.80226090  0.00692490    -0.78200
O696        O  0.38502593  0.77742288  0.99184006    -1.14340
O697        O  0.35562705  0.76116402  0.02081316    -0.73530
C698        C  0.36726360  0.76615604  0.03641114     0.97180
C699        C  0.42565211  0.76305929  0.96789049     0.93580
Al700      Al  0.39552261  0.79837404  0.97554632     1.55560
O701        O  0.38352714  0.73411908  0.00074144    -0.78150
C702        C  0.35864976  0.81943019  0.99692047     0.97750
C703        C  0.42214486  0.80147007  0.01302624     0.92630
O704        O  0.42242138  0.78127858  0.01552873    -0.83470
O705        O  0.02034657  0.21116443  0.87280678    -0.82930
C706        C  0.99771380  0.29253484  0.84426409     0.96420
O707        O  0.00990112  0.27721028  0.83871294    -0.72050
O708        O  0.03427351  0.24243168  0.84306899    -0.75640
Al709      Al  0.00401389  0.24766828  0.84360818     1.48980
C710        C  0.04848201  0.24943484  0.85568316     0.91670
O711        O  0.02214759  0.26118647  0.90993075    -0.81860
O712        O  0.97455103  0.25291137  0.90601947    -0.75420
Al713      Al  0.01963627  0.23793408  0.88961527     1.90120
O714        O  0.00122806  0.28642794  0.89665864    -0.74490
O715        O  0.95794872  0.25436425  0.86728539    -0.74340
O716        O  0.98353752  0.28998733  0.85866451    -0.80000
O717        O  0.97456992  0.25128287  0.83645781    -0.78200
O718        O  0.00146323  0.25161024  0.87176291    -1.14340
O719        O  0.99795388  0.21845215  0.84633112    -0.73530
C720        C  0.00811716  0.20504659  0.85754343     0.97180
C721        C  0.01514848  0.28025903  0.91006900     0.93580
Al722      Al  0.98108670  0.26938215  0.88144705     1.55560
O723        O  0.04480945  0.25000776  0.87565299    -0.78150
C724        C  0.95752890  0.25033004  0.84738516     0.97750
C725        C  0.98024167  0.23497509  0.91344552     0.92630
O726        O  0.99671608  0.22521710  0.90625332    -0.83470
O727        O  0.88707599  0.25913731  0.04572548    -0.82930
C728        C  0.85606125  0.25890281  0.95986807     0.96420
O729        O  0.84580201  0.26175626  0.97711565    -0.72050
O730        O  0.85479565  0.22881528  0.00008522    -0.75640
Al731      Al  0.85390189  0.25786971  0.00618910     1.48980
C732        C  0.86576074  0.21491056  0.00978289     0.91670
O733        O  0.91568563  0.23281634  0.99745689    -0.81860
O734        O  0.90784446  0.29416082  0.00015221    -0.75420
Al735      Al  0.90002923  0.24655405  0.02029721     1.90120
O736        O  0.91579143  0.25954969  0.97445120    -0.74490
O737        O  0.86921321  0.29839183  0.98398706    -0.74340
O738        O  0.87628347  0.26128405  0.95945663    -0.80000
O739        O  0.85125895  0.28716760  0.01220024    -0.78200
O740        O  0.88214274  0.26033736  0.00252324    -1.14340
O741        O  0.85377827  0.25290612  0.03646180    -0.73530
C742        C  0.86727270  0.25861623  0.05041055     0.97180
C743        C  0.92249628  0.24140604  0.98038652     0.93580
Al744      Al  0.89168561  0.27694801  0.98129815     1.55560
O745        O  0.88207126  0.22019300  0.02123003    -0.78150
C746        C  0.85571540  0.30182830  0.99893128     0.97750
C747        C  0.92053712  0.28908057  0.01511476     0.92630
O748        O  0.92091151  0.26998990  0.02230552    -0.83470
O749        O  0.00162429  0.65157031  0.93961325    -0.82930
C750        C  0.01943521  0.63182319  0.02678928     0.96420
O751        O  0.02026631  0.61943720  0.01069118    -0.72050
O752        O  0.98361277  0.62257758  0.99213291    -0.75640
Al753      Al  0.01125726  0.62343637  0.98158258     1.48980
C754        C  0.96686554  0.63138135  0.98516359     0.91670
O755        O  0.98339150  0.68437281  0.98966485    -0.81860
O756        O  0.04424313  0.67766651  0.97426744    -0.75420
Al757      Al  0.99331287  0.66652811  0.96596044     1.90120
O758        O  0.01508302  0.68927828  0.00454587    -0.74490
O759        O  0.05377640  0.64219144  0.99590136    -0.74340
O760        O  0.02047282  0.65198242  0.02443572    -0.80000
O761        O  0.03919990  0.62269917  0.97065544    -0.78200
O762        O  0.01176110  0.65170385  0.98211860    -1.14340
O763        O  0.00175410  0.61931352  0.95286295    -0.73530
C764        C  0.00320134  0.63151350  0.93694792     0.97180
C765        C  0.99578348  0.69508254  0.00187246     0.93580
Al766      Al  0.03170476  0.66444572  0.99840088     1.55560
O767        O  0.96836128  0.64724448  0.97218507    -0.78150
C768        C  0.05519189  0.62711728  0.98226189     0.97750
C769        C  0.03494725  0.68906517  0.96025114     0.92630
O770        O  0.01461143  0.68792942  0.95746120    -0.83470
O771        O  0.87571425  0.53635536  0.03973904    -0.82930
C772        C  0.90962610  0.53032814  0.95592939     0.96420
O773        O  0.91991871  0.53166731  0.97326910    -0.72050
O774        O  0.90591736  0.56604131  0.99127671    -0.75640
Al775      Al  0.91064752  0.53822697  0.00145557     1.48980
C776        C  0.89597992  0.57978102  0.00228751     0.91670
O777        O  0.85026853  0.55786205  0.98818033    -0.81860
O778        O  0.86025045  0.49674913  0.00029966    -0.75420
Al779      Al  0.86368066  0.54691770  0.01328537     1.90120
O780        O  0.85067962  0.52728396  0.96986826    -0.74490
O781        O  0.89950911  0.49322722  0.98564094    -0.74340
O782        O  0.89001487  0.52516985  0.95594023    -0.80000
O783        O  0.91697443  0.51042407  0.01114977    -0.78200
O784        O  0.88316501  0.53225530  0.99796684    -1.14340
O785        O  0.90849862  0.54637482  0.03112165    -0.73530
C786        C  0.89530611  0.53909617  0.04473757     0.97180
C787        C  0.84434974  0.54649278  0.97236508     0.93580
Al788      Al  0.87556399  0.51212516  0.97942112     1.55560
O789        O  0.88048499  0.57402278  0.01447643    -0.78150
C790        C  0.91368264  0.49356005  0.00039578     0.97750
C791        C  0.84474091  0.50368303  0.01137861     0.92630
O792        O  0.84283078  0.52363183  0.01515908    -0.83470
O793        O  0.00164636  0.47772001  0.86821929    -0.82930
C794        C  0.02228657  0.56585969  0.87763020     0.96420
O795        O  0.02716457  0.55139611  0.89102042    -0.72050
O796        O  0.99090861  0.53137365  0.89781418    -0.75640
Al797      Al  0.01899941  0.52155261  0.89149348     1.48980
C798        C  0.97322440  0.52305732  0.89215389     0.91670
O799        O  0.97866181  0.52589635  0.83952995    -0.81860
O800        O  0.03905564  0.50864354  0.83050324    -0.75420
Al801      Al  0.99183377  0.50307346  0.85434498     1.90120
O802        O  0.00724587  0.53879261  0.82367723    -0.74490
O803        O  0.05624242  0.53370535  0.86188688    -0.74340
O804        O  0.02059605  0.56134509  0.85780049    -0.80000
O805        O  0.04775913  0.51176881  0.88800441    -0.78200
O806        O  0.01350565  0.51944877  0.86360041    -1.14340
O807        O  0.01184760  0.49261966  0.89851324    -0.73530
C808        C  0.00698543  0.47616966  0.88767355     0.97180
C809        C  0.98696669  0.53672763  0.82468161     0.93580
Al810      Al  0.02957798  0.53441390  0.84498669     1.55560
O811        O  0.97260125  0.50958124  0.87707288    -0.78150
C812        C  0.06180994  0.52192957  0.87754811     0.97750
C813        C  0.02619777  0.49429363  0.82361591     0.92630
O814        O  0.00681726  0.49334181  0.82981384    -0.83470
O815        O  0.26615089  0.67130501  0.28508197    -0.82930
C816        C  0.25842454  0.64790191  0.19706406     0.96420
O817        O  0.26356591  0.63619984  0.21266886    -0.72050
O818        O  0.29760384  0.64635468  0.23431416    -0.75640
Al819      Al  0.26864497  0.64075876  0.24225770     1.48980
C820        C  0.31061085  0.65488952  0.24724029     0.91670
O821        O  0.28927239  0.70025104  0.23607091    -0.81860
O822        O  0.22750163  0.69202830  0.25035483    -0.75420
Al823      Al  0.27757361  0.68560418  0.26012028     1.90120
O824        O  0.25784973  0.70353253  0.21905914    -0.74490
O825        O  0.22161714  0.65553814  0.23067950    -0.74340
O826        O  0.25156341  0.66670498  0.20005455    -0.80000
O827        O  0.24051965  0.63256532  0.24949603    -0.78200
O828        O  0.26234347  0.66828680  0.24270137    -1.14340
O829        O  0.27471541  0.63912071  0.27256982    -0.73530
C830        C  0.26837609  0.65118963  0.28780975     0.97180
C831        C  0.27778586  0.70793110  0.22108488     0.93580
Al832      Al  0.24130325  0.67875550  0.22644984     1.55560
O833        O  0.30385776  0.66844734  0.26088854    -0.78150
C834        C  0.22274196  0.63859191  0.24166738     0.97750
C835        C  0.23595517  0.70764955  0.25995878     0.92630
O836        O  0.25600047  0.70775025  0.26339475    -0.83470
O837        O  0.31068669  0.53091977  0.10931375    -0.82930
C838        C  0.22432098  0.53909618  0.13716977     0.96420
O839        O  0.24071631  0.54432297  0.14814471    -0.72050
O840        O  0.26668677  0.51229252  0.14831598    -0.75640
Al841      Al  0.27078569  0.54126853  0.14219056     1.48980
C842        C  0.27465261  0.49583001  0.13972531     0.91670
O843        O  0.25937123  0.50462157  0.08644397    -0.81860
O844        O  0.26835553  0.56753341  0.08419713    -0.75420
Al845      Al  0.28370898  0.51918975  0.09918743     1.90120
O846        O  0.24120993  0.53355635  0.07811211    -0.74490
O847        O  0.24737846  0.57804242  0.12022048    -0.74340
O848        O  0.22459355  0.53998773  0.11684358    -0.80000
O849        O  0.27559653  0.57106074  0.13971144    -0.78200
O850        O  0.26734458  0.53773021  0.11409443    -1.14340
O851        O  0.30114226  0.53859005  0.14237978    -0.73530
C852        C  0.31550386  0.53657611  0.12822452     0.97180
C853        C  0.24487109  0.51380240  0.07555258     0.93580
Al854      Al  0.24716344  0.55344028  0.10090226     1.55560
O855        O  0.28351269  0.49671667  0.12128468    -0.78150
C856        C  0.26142940  0.58412730  0.13359866     0.97750
C857        C  0.28115562  0.55788292  0.07155751     0.92630
O858        O  0.28651490  0.53834395  0.07457575    -0.83470
O859        O  0.12272249  0.48912491  0.25327604    -0.82930
C860        C  0.16069865  0.57109725  0.23952546     0.96420
O861        O  0.17023652  0.55323216  0.23920779    -0.72050
O862        O  0.15981626  0.53470338  0.27475091    -0.75640
Al863      Al  0.16029837  0.52528670  0.24603097     1.48980
C864        C  0.14710742  0.53003794  0.28981803     0.91670
O865        O  0.09910946  0.54376288  0.26759230    -0.81860
O866        O  0.10865341  0.52823999  0.20794593    -0.75420
Al867      Al  0.11263748  0.51761723  0.25919302     1.90120
O868        O  0.10025263  0.56006874  0.23649817    -0.74490
O869        O  0.14781324  0.54290548  0.20257466    -0.74340
O870        O  0.14073614  0.57223931  0.23539750    -0.80000
O871        O  0.16371784  0.51540915  0.21729764    -0.78200
O872        O  0.13246024  0.53065906  0.24263278    -1.14340
O873        O  0.15713787  0.49658794  0.25370914    -0.73530
C874        C  0.14204407  0.48312810  0.25382115     0.97180
C875        C  0.09322699  0.55868804  0.25537771     0.93580
Al876      Al  0.12482243  0.54926253  0.22231682     1.55560
O877        O  0.12939528  0.52037341  0.28598061    -0.78150
C878        C  0.16087706  0.52735534  0.20124759     0.97750
C879        C  0.09493261  0.51523097  0.21534933     0.92630
O880        O  0.09279495  0.51262408  0.23552258    -0.83470
O881        O  0.26712797  0.64705775  0.93348363    -0.82930
C882        C  0.25539267  0.67622624  0.01918595     0.96420
O883        O  0.25823001  0.68737393  0.00258642    -0.72050
O884        O  0.29378375  0.67720284  0.98361646    -0.75640
Al885      Al  0.26539718  0.68030218  0.97369499     1.48980
C886        C  0.30813488  0.66723543  0.97336945     0.91670
O887        O  0.28680010  0.61974956  0.98551274    -0.81860
O888        O  0.22597656  0.62781460  0.96917373    -0.75420
Al889      Al  0.27672426  0.63421706  0.96011558     1.90120
O890        O  0.25482752  0.61783101  0.00124155    -0.74490
O891        O  0.21949079  0.66599003  0.98651436    -0.74340
O892        O  0.25025374  0.65665533  0.01766798    -0.80000
O893        O  0.23739777  0.68603993  0.96387607    -0.78200
O894        O  0.26047977  0.65236185  0.97554336    -1.14340
O895        O  0.27384674  0.68007395  0.94400762    -0.73530
C896        C  0.26869908  0.66692207  0.92936938     0.97180
C897        C  0.27427833  0.61177062  0.99956408     0.93580
Al898      Al  0.23935691  0.64278410  0.99224128     1.55560
O899        O  0.30311808  0.65174755  0.96097341    -0.78150
C900        C  0.21991914  0.68111032  0.97299314     0.97750
C901        C  0.23448556  0.61271347  0.95847256     0.92630
O902        O  0.25471633  0.61243467  0.95579520    -0.83470
O903        O  0.14347944  0.47254560  0.98067691    -0.82930
C904        C  0.11470160  0.55771238  0.99326658     0.96420
O905        O  0.10558136  0.54011454  0.99579768    -0.72050
O906        O  0.11562532  0.52608028  0.95652762    -0.75640
Al907      Al  0.11469761  0.51374439  0.98408687     1.48980
C908        C  0.12509497  0.51686939  0.94091856     0.91670
O909        O  0.17579631  0.52348068  0.95917764    -0.81860
O910        O  0.17154263  0.51655676  0.01841456    -0.75420
Al911      Al  0.15908631  0.49940436  0.97043813     1.90120
O912        O  0.17376729  0.54620945  0.98647430    -0.74490
O913        O  0.13207434  0.52731787  0.02756683    -0.74340
O914        O  0.13490046  0.55853804  0.99459777    -0.80000
O915        O  0.11359433  0.50137520  0.01163215    -0.78200
O916        O  0.14269810  0.51640893  0.98660228    -1.14340
O917        O  0.11323538  0.48622850  0.97119808    -0.73530
C918        C  0.12306526  0.47043689  0.97845928     0.97180
C919        C  0.18034579  0.54149231  0.96781854     0.93580
Al920      Al  0.15251984  0.53555947  0.00533585     1.55560
O921        O  0.14038546  0.50328479  0.94440763    -0.78150
C922        C  0.11885039  0.51166040  0.02852059     0.97750
C923        C  0.18327016  0.50157090  0.01160433     0.92630
O924        O  0.18067679  0.49386567  0.99280437    -0.83470
O925        O  0.96591531  0.51609034  0.11956476    -0.82930
C926        C  0.05118571  0.51999854  0.08725931     0.96420
O927        O  0.03420330  0.52301187  0.07646446    -0.72050
O928        O  0.00971186  0.49037999  0.08407135    -0.75640
Al929      Al  0.00459469  0.52013481  0.08433109     1.48980
C930        C  0.00334094  0.47560577  0.09628369     0.91670
O931        O  0.01748139  0.49472037  0.14588785    -0.81860
O932        O  0.00981381  0.55634505  0.13725904    -0.75420
Al933      Al  0.99301228  0.50667344  0.13118698     1.90120
O934        O  0.03697122  0.52388550  0.14664409    -0.74490
O935        O  0.02787619  0.56013536  0.09950699    -0.74340
O936        O  0.05147820  0.52361342  0.10726144    -0.80000
O937        O  0.99920658  0.55044414  0.08148474    -0.78200
O938        O  0.00890962  0.52196464  0.11257813    -1.14340
O939        O  0.97445247  0.51624441  0.08542657    -0.73530
C940        C  0.96052193  0.51714559  0.10006757     0.97180
C941        C  0.03345482  0.50507944  0.15285967     0.93580
Al942      Al  0.02966301  0.53944512  0.12195271     1.55560
O943        O  0.99361114  0.48003478  0.11382441    -0.78150
C944        C  0.01315360  0.56450495  0.08626499     0.97750
C945        C  0.99607623  0.55029568  0.15098480     0.92630
O946        O  0.99009633  0.53067628  0.15181725    -0.83470
O947        O  0.99797303  0.65759967  0.27557711    -0.82930
C948        C  0.00789507  0.68439013  0.18936120     0.96420
O949        O  0.00423679  0.69606723  0.20554718    -0.72050
O950        O  0.96962949  0.68494935  0.22558884    -0.75640
Al951      Al  0.99804751  0.68981324  0.23480941     1.48980
C952        C  0.95599933  0.67332883  0.23495229     0.91670
O953        O  0.98077274  0.62689924  0.22462997    -0.81860
O954        O  0.04092957  0.64039297  0.23943334    -0.75420
Al955      Al  0.98971808  0.64333796  0.24929791     1.90120
O956        O  0.01231817  0.62703171  0.20815519    -0.74490
O957        O  0.04438949  0.67798348  0.22096064    -0.74340
O958        O  0.01391075  0.66522144  0.19136349    -0.80000
O959        O  0.02606514  0.69757896  0.24377535    -0.78200
O960        O  0.00458323  0.66208581  0.23338229    -1.14340
O961        O  0.99023183  0.69018005  0.26480305    -0.73530
C962        C  0.99565363  0.67739619  0.27958027     0.97180
C963        C  0.99337170  0.61971028  0.21021951     0.93580
Al964      Al  0.02608832  0.65330329  0.21648225     1.55560
O965        O  0.96211859  0.65847056  0.24748765    -0.78150
C966        C  0.04335866  0.69376312  0.23381950     0.97750
C967        C  0.03360405  0.62590533  0.25143365     0.92630
O968        O  0.01347888  0.62408744  0.25435694    -0.83470
O969        O  0.24322144  0.08352837  0.87733162    -0.82930
C970        C  0.25561236  0.00375932  0.83512331     0.96420
O971        O  0.25149175  0.02173262  0.82679494    -0.72050
O972        O  0.21635725  0.03740883  0.84233929    -0.75640
Al973      Al  0.24371090  0.04901635  0.83861411     1.48980
C974        C  0.20236101  0.04354636  0.85559941     0.91670
O975        O  0.22829204  0.02848148  0.89972806    -0.81860
O976        O  0.28736399  0.04728437  0.88766157    -0.75420
Al977      Al  0.23584079  0.05540379  0.88724511     1.90120
O978        O  0.26039243  0.01373481  0.89570818    -0.74490
O979        O  0.29014745  0.03524008  0.84751222    -0.74340
O980        O  0.26133601  0.00257182  0.85461729    -0.80000
O981        O  0.27115519  0.06074304  0.83204587    -0.78200
O982        O  0.25081784  0.04327566  0.86570316    -1.14340
O983        O  0.23369352  0.07776232  0.84399222    -0.73530
C984        C  0.24063430  0.09026046  0.85841120     0.97180
C985        C  0.24234303  0.01473833  0.90509115     0.93580
Al986      Al  0.27296425  0.02612680  0.87103093     1.55560
O987        O  0.20772400  0.05439724  0.87218353    -0.78150
C988        C  0.28848396  0.05025960  0.83407154     0.97750
C989        C  0.28032612  0.05568631  0.90474067     0.92630
O990        O  0.26012725  0.05827522  0.90706409    -0.83470
O991        O  0.20419450  0.91399916  0.99261768    -0.82930
C992        C  0.28902200  0.87886446  0.98982314     0.96420
O993        O  0.27150876  0.86871668  0.98775984    -0.72050
O994        O  0.24751483  0.87738475  0.02032942    -0.75640
Al995      Al  0.24206908  0.87757311  0.99101451     1.48980
C996        C  0.23924119  0.88878869  0.03483267     0.91670
O997        O  0.25469642  0.93621114  0.01934137    -0.81860
O998        O  0.24812794  0.93210918  0.95698699    -0.75420
Al999      Al  0.23052797  0.92380339  0.00526913     1.90120
O1000       O  0.27578825  0.93838635  0.99094239    -0.74490
O1001       O  0.26416140  0.89367354  0.95027314    -0.74340
O1002       O  0.28961071  0.89885110  0.98664604    -0.80000
O1003       O  0.23642636  0.87511591  0.96134714    -0.78200
O1004       O  0.24680372  0.90555634  0.98966216    -1.14340
O1005       O  0.21173978  0.87967985  0.99483007    -0.73530
C1006       C  0.19839958  0.89466233  0.99168487     0.97180
C1007       C  0.27109564  0.94370608  0.01002142     0.93580
Al1008     Al  0.26766006  0.91506770  0.97259580     1.55560
O1009       O  0.22810758  0.90524946  0.03029915    -0.78150
C1010       C  0.24938486  0.88010112  0.94660372     0.97750
C1011       C  0.23652428  0.94676912  0.96492263     0.92630
O1012       O  0.23023741  0.94617515  0.98422429    -0.83470
O1013       O  0.64009183  0.57255596  0.49455165    -0.82930
C1014       C  0.62047776  0.48744792  0.47395691     0.96420
O1015       O  0.61234635  0.50383662  0.46554191    -0.72050
O1016       O  0.60530293  0.52001286  0.50557188    -0.75640
Al1017     Al  0.61378830  0.53146086  0.47826288     1.48980
C1018       C  0.60951661  0.52944708  0.52329145     0.91670
O1019       O  0.66313242  0.52242798  0.52055853    -0.81860
O1020       O  0.67721802  0.53481140  0.46133336    -0.75420
Al1021     Al  0.65105497  0.54610376  0.50630822     1.90120
O1022       O  0.67689547  0.50441847  0.49347917    -0.74490
O1023       O  0.64319750  0.51753564  0.44207174    -0.74340
O1024       O  0.64053330  0.48751362  0.47781495    -0.80000
O1025       O  0.62066073  0.54345786  0.45143233    -0.78200
O1026       O  0.64137258  0.53011235  0.48491036    -1.14340
O1027       O  0.60817846  0.55922694  0.48835453    -0.73530
C1028       C  0.62041806  0.57513617  0.49014644     0.97180
C1029       C  0.67573089  0.50815904  0.51346274     0.93580
Al1030     Al  0.65834711  0.51229406  0.46976521     1.55560
O1031       O  0.62576303  0.54191284  0.52456919    -0.78150
C1032       C  0.63038792  0.53287355  0.43698785     0.97750
C1033       C  0.68437983  0.54976974  0.47311180     0.92630
O1034       O  0.67734294  0.55295201  0.49200049    -0.83470
O1035       O  0.49795216  0.66700321  0.44311575    -0.82930
C1036       C  0.50437129  0.63141003  0.52278359     0.96420
O1037       O  0.49647731  0.62752874  0.50457504    -0.72050
O1038       O  0.47892023  0.63731894  0.46797335    -0.75640
Al1039     Al  0.50803830  0.63467652  0.47788580     1.48980
C1040       C  0.46458549  0.64966905  0.47543562     0.91670
O1041       O  0.49314668  0.70208447  0.49512562    -0.81860
O1042       O  0.54103883  0.69270840  0.49292315    -0.75420
Al1043     Al  0.49690828  0.68211111  0.47115863     1.90120
O1044       O  0.50794083  0.68481415  0.52169543    -0.74490
O1045       O  0.55266403  0.65327143  0.49649329    -0.74340
O1046       O  0.51930942  0.64519121  0.52504128    -0.80000
O1047       O  0.53596371  0.62455111  0.48561717    -0.78200
O1048       O  0.51146990  0.66194756  0.48551078    -1.14340
O1049       O  0.51951970  0.64003624  0.45074379    -0.73530
C1050       C  0.51069193  0.65203645  0.43712035     0.97180
C1051       C  0.49678577  0.70019099  0.51505413     0.93580
Al1052     Al  0.52874845  0.66854465  0.50725430     1.55560
O1053       O  0.46937764  0.66909693  0.47959081    -0.78150
C1054       C  0.55320766  0.63430555  0.48978104     0.97750
C1055       C  0.53948764  0.70025838  0.47406432     0.92630
O1056       O  0.52309517  0.69640973  0.46240390    -0.83470
O1057       O  0.45881524  0.52698626  0.62711792    -0.82930
C1058       C  0.54088166  0.53387121  0.58703443     0.96420
O1059       O  0.52234724  0.53439328  0.57878432    -0.72050
O1060       O  0.50574364  0.49906139  0.59362000    -0.75640
Al1061     Al  0.49497493  0.52667681  0.59073493     1.48980
C1062       C  0.49952915  0.48523368  0.60704652     0.91670
O1063       O  0.51236666  0.50788906  0.65268362    -0.81860
O1064       O  0.50163182  0.56797711  0.64156815    -0.75420
Al1065     Al  0.48670318  0.51781749  0.63845586     1.90120
O1066       O  0.53179303  0.53703670  0.64802840    -0.74490
O1067       O  0.51255523  0.57051685  0.60105053    -0.74340
O1068       O  0.54285874  0.53756636  0.60695963    -0.80000
O1069       O  0.48411828  0.55469482  0.58680378    -0.78200
O1070       O  0.50093735  0.53206188  0.61805438    -1.14340
O1071       O  0.46606652  0.51692836  0.59439797    -0.73530
C1072       C  0.45263470  0.52349222  0.60804817     0.97180
C1073       C  0.52828561  0.51956718  0.65768781     0.93580
Al1074     Al  0.52068220  0.55168155  0.62399530     1.55560
O1075       O  0.48739289  0.49042111  0.62281555    -0.78150
C1076       C  0.49586393  0.57115528  0.58926217     0.97750
C1077       C  0.49048639  0.56116062  0.65709559     0.92630
O1078       O  0.48472990  0.54168485  0.65804887    -0.83470
O1079       O  0.63035316  0.97826519  0.99095483    -0.82930
C1080       C  0.59119884  0.05979031  0.00055418     0.96420
O1081       O  0.58273436  0.04175555  0.00374523    -0.72050
O1082       O  0.59415996  0.02402815  0.96788224    -0.75640
Al1083     Al  0.59386408  0.01426936  0.99588443     1.48980
C1084       C  0.60736801  0.01975331  0.95302938     0.91670
O1085       O  0.65542011  0.03012274  0.97203589    -0.81860
O1086       O  0.64780741  0.02244742  0.03122659    -0.75420
Al1087     Al  0.64108227  0.00563971  0.98244570     1.90120
O1088       O  0.65188882  0.05177381  0.99967771    -0.74490
O1089       O  0.60769930  0.03367998  0.03808325    -0.74340
O1090       O  0.61130505  0.06190031  0.00291219    -0.80000
O1091       O  0.59242995  0.00464124  0.02474601    -0.78200
O1092       O  0.62175051  0.02021364  0.99830955    -1.14340
O1093       O  0.59633098  0.98547932  0.98663892    -0.73530
C1094       C  0.61115667  0.97213751  0.98954589     0.97180
C1095       C  0.65999846  0.04721902  0.98169170     0.93580
Al1096     Al  0.62925652  0.04079610  0.01655504     1.55560
O1097       O  0.62381017  0.00785476  0.95624095    -0.78150
C1098       C  0.59563082  0.01736306  0.04043531     0.97750
C1099       C  0.66104594  0.00831323  0.02488720     0.92630
O1100       O  0.66137227  0.00197666  0.00553615    -0.83470
O1101       O  0.54705755  0.89551960  0.01708886    -0.82930
C1102       C  0.46513695  0.93439094  0.01115733     0.96420
O1103       O  0.48309285  0.94386679  0.01025368    -0.72050
O1104       O  0.50388622  0.93262101  0.04402319    -0.75640
Al1105     Al  0.51163220  0.93362683  0.01506155     1.48980
C1106       C  0.50987617  0.91989593  0.05845423     0.91670
O1107       O  0.49424547  0.87342603  0.03818697    -0.81860
O1108       O  0.50556563  0.88121328  0.97651745    -0.75420
Al1109     Al  0.51975114  0.88607227  0.02703517     1.90120
O1110       O  0.47562392  0.87421833  0.00815080    -0.74490
O1111       O  0.49142426  0.92135519  0.97197050    -0.74340
O1112       O  0.46376450  0.91464141  0.00664699    -0.80000
O1113       O  0.51952035  0.93758893  0.98563607    -0.78200
O1114       O  0.50568849  0.90592219  0.01150842    -1.14340
O1115       O  0.54147523  0.92998453  0.02124291    -0.73530
C1116       C  0.55380540  0.91450723  0.01679953     0.97180
C1117       C  0.47879548  0.86687116  0.02680045     0.93580
Al1118     Al  0.48574799  0.89840803  0.99238945     1.55560
O1119       O  0.52038620  0.90298150  0.05372868    -0.78150
C1120       C  0.50678522  0.93463238  0.96998332     0.97750
C1121       C  0.51700788  0.86623273  0.98411882     0.92630
O1122       O  0.52135817  0.86532471  0.00399743    -0.83470
O1123       O  0.51037414  0.08531808  0.87041427    -0.82930
C1124       C  0.50630029  0.00004731  0.90411257     0.96420
O1125       O  0.50518989  0.01777417  0.91388278    -0.72050
O1126       O  0.53821525  0.04138381  0.90557417    -0.75640
Al1127     Al  0.50873279  0.04693393  0.90542905     1.48980
C1128       C  0.55262463  0.04990587  0.89423944     0.91670
O1129       O  0.53676332  0.03533551  0.84573075    -0.81860
O1130       O  0.47429655  0.04151336  0.84929100    -0.75420
Al1131     Al  0.52277964  0.05916794  0.85935046     1.90120
O1132       O  0.50848345  0.01412101  0.84373774    -0.74490
O1133       O  0.46779707  0.02523978  0.88841406    -0.74340
O1134       O  0.50371572  0.99935492  0.88387378    -0.80000
O1135       O  0.47875478  0.05262688  0.90794578    -0.78200
O1136       O  0.50719816  0.04258370  0.87717225    -1.14340
O1137       O  0.51310466  0.07709711  0.90446587    -0.73530
C1138       C  0.50958901  0.09068168  0.88998036     0.97180
C1139       C  0.52722284  0.01933431  0.83767207     0.93580
Al1140     Al  0.49003469  0.02188370  0.86706134     1.55560
O1141       O  0.54796999  0.06078523  0.87772950    -0.78150
C1142       C  0.46451652  0.03897500  0.90307893     0.97750
C1143       C  0.48197782  0.05453957  0.83565404     0.92630
O1144       O  0.50136669  0.06064143  0.83706319    -0.83470
O1145       O  0.64016362  0.33526206  0.26149063    -0.82930
C1146       C  0.60702518  0.25114097  0.24823409     0.96420
O1147       O  0.59905771  0.26928975  0.25062061    -0.72050
O1148       O  0.61327844  0.28229896  0.28813810    -0.75640
Al1149     Al  0.60964370  0.29496134  0.26117754     1.48980
C1150       C  0.62467035  0.29087186  0.30277486     0.91670
O1151       O  0.67261248  0.28564567  0.28050282    -0.81860
O1152       O  0.66492051  0.29116469  0.22296571    -0.75420
Al1153     Al  0.65554983  0.30881804  0.27084933     1.90120
O1154       O  0.66716135  0.26118814  0.25511333    -0.74490
O1155       O  0.62437419  0.28169882  0.21610901    -0.74340
O1156       O  0.62726907  0.24927554  0.24729923    -0.80000
O1157       O  0.60555174  0.30701386  0.23307215    -0.78200
O1158       O  0.63740952  0.29178363  0.25611612    -1.14340
O1159       O  0.61125624  0.32214898  0.27470155    -0.73530
C1160       C  0.62027806  0.33739734  0.26546380     0.97180
C1161       C  0.67575605  0.26724334  0.27256273     0.93580
Al1162     Al  0.64559061  0.27243892  0.23690571     1.55560
O1163       O  0.63940740  0.30466253  0.29821117    -0.78150
C1164       C  0.61034245  0.29669668  0.21584159     0.97750
C1165       C  0.67623553  0.30692053  0.22875989     0.92630
O1166       O  0.67479837  0.31455256  0.24750291    -0.83470
O1167       O  0.45903640  0.29285525  0.11879487    -0.82930
C1168       C  0.54483480  0.29227274  0.15194419     0.96420
O1169       O  0.52725461  0.29075138  0.16197031    -0.72050
O1170       O  0.50303375  0.32254890  0.15064974    -0.75640
Al1171     Al  0.49796862  0.29296724  0.15342809     1.48980
C1172       C  0.49656923  0.33587147  0.13683626     0.91670
O1173       O  0.50849551  0.31337156  0.08928937    -0.81860
O1174       O  0.50470384  0.25369787  0.10171763    -0.75420
Al1175     Al  0.48534304  0.30224563  0.10597413     1.90120
O1176       O  0.53147689  0.28687712  0.09232652    -0.74490
O1177       O  0.52120784  0.25163978  0.14037154    -0.74340
O1178       O  0.54565517  0.28785787  0.13209386    -0.80000
O1179       O  0.49314219  0.26304323  0.15864481    -0.78200
O1180       O  0.50234448  0.28896732  0.12537647    -1.14340
O1181       O  0.46753941  0.29649030  0.15258291    -0.73530
C1182       C  0.45372494  0.29298759  0.13825771     0.97180
C1183       C  0.52549284  0.30396395  0.08350442     0.93580
Al1184     Al  0.52383996  0.27156919  0.11719157     1.55560
O1185       O  0.48574036  0.32982241  0.12061678    -0.78150
C1186       C  0.50689864  0.24851716  0.15445071     0.97750
C1187       C  0.48918728  0.25837480  0.08941640     0.92630
O1188       O  0.48232641  0.27746484  0.08802900    -0.83470
O1189       O  0.49174490  0.15358784  0.30081379    -0.82930
C1190       C  0.50598693  0.18020434  0.21470991     0.96420
O1191       O  0.50183195  0.19133138  0.23106039    -0.72050
O1192       O  0.46672335  0.18326819  0.25132989    -0.75640
Al1193     Al  0.49576070  0.18592338  0.26003631     1.48980
C1194       C  0.45223710  0.17241667  0.26032236     0.91670
O1195       O  0.47376085  0.12451329  0.24924785    -0.81860
O1196       O  0.53456763  0.13214799  0.26659503    -0.75420
Al1197     Al  0.48324910  0.14013537  0.27433803     1.90120
O1198       O  0.50589853  0.12216980  0.23421078    -0.74490
O1199       O  0.54167046  0.16957101  0.24709467    -0.74340
O1200       O  0.51142637  0.16063089  0.21644344    -0.80000
O1201       O  0.52470483  0.19240101  0.26810423    -0.78200
O1202       O  0.50023936  0.15770153  0.25887202    -1.14340
O1203       O  0.48848383  0.18691715  0.28981416    -0.73530
C1204       C  0.49160742  0.17353824  0.30465631     0.97180
C1205       C  0.48664789  0.11575914  0.23598502     0.93580
Al1206     Al  0.52153214  0.14694443  0.24261911     1.55560
O1207       O  0.45709907  0.15694544  0.27241602    -0.78150
C1208       C  0.54148246  0.18662101  0.25800473     0.97750
C1209       C  0.52501874  0.11874257  0.27857358     0.92630
O1210       O  0.50474574  0.11912126  0.28019290    -0.83470
O1211       O  0.61391305  0.98434275  0.26760597    -0.82930
C1212       C  0.63452371  0.07375000  0.26538389     0.96420
O1213       O  0.64736514  0.05798664  0.26578699    -0.72050
O1214       O  0.64248420  0.03280657  0.29754133    -0.75640
Al1215     Al  0.64409985  0.02766581  0.26807999     1.48980
C1216       C  0.63386471  0.02094240  0.31124721     0.91670
O1217       O  0.58429421  0.03207143  0.29373614    -0.81860
O1218       O  0.59096185  0.02389218  0.23061656    -0.75420
Al1219     Al  0.59968086  0.00905749  0.28000552     1.90120
O1220       O  0.57791753  0.04967764  0.26374867    -0.74490
O1221       O  0.62613052  0.04709788  0.22641968    -0.74340
O1222       O  0.61469543  0.07104998  0.26147701    -0.80000
O1223       O  0.64914002  0.02331640  0.23874114    -0.78200
O1224       O  0.61576807  0.02761723  0.26500747    -1.14340
O1225       O  0.64694553  0.99688235  0.27098040    -0.73530
C1226       C  0.63416132  0.98145078  0.26709061     0.97180
C1227       C  0.57481602  0.04689998  0.28359543     0.93580
Al1228     Al  0.60334606  0.04623546  0.24708301     1.55560
O1229       O  0.61852786  0.00843096  0.30582567    -0.78150
C1230       C  0.64272418  0.03564279  0.22412841     0.97750
C1231       C  0.57732995  0.01057991  0.23758016     0.92630
O1232       O  0.57722975  0.00562576  0.25748629    -0.83470
O1233       O  0.44499587  0.02036733  0.13887026    -0.82930
C1234       C  0.52994416  0.02334177  0.10434139     0.96420
O1235       O  0.51228995  0.02539917  0.09447604    -0.72050
O1236       O  0.48957683  0.99241706  0.10466921    -0.75640
Al1237     Al  0.48314589  0.02158313  0.10354419     1.48980
C1238       C  0.48310130  0.97817361  0.11740116     0.91670
O1239       O  0.49676783  0.99855562  0.16629254    -0.81860
O1240       O  0.48926517  0.05957734  0.15592130    -0.75420
Al1241     Al  0.47216749  0.01007858  0.15080431     1.90120
O1242       O  0.51732816  0.02711734  0.16471339    -0.74490
O1243       O  0.50547844  0.06264505  0.11691540    -0.74340
O1244       O  0.53088551  0.02698660  0.12436919    -0.80000
O1245       O  0.47657460  0.05141761  0.09986972    -0.78200
O1246       O  0.48806727  0.02461556  0.13161669    -1.14340
O1247       O  0.45302132  0.01631017  0.10497159    -0.73530
C1248       C  0.43940731  0.02050658  0.11932500     0.97180
C1249       C  0.51293481  0.00917079  0.17284067     0.93580
Al1250     Al  0.50887902  0.04255520  0.13988310     1.55560
O1251       O  0.47240411  0.98309924  0.13422021    -0.78150
C1252       C  0.49063818  0.06571142  0.10336703     0.97750
C1253       C  0.47680788  0.05290945  0.17052973     0.92630
O1254       O  0.47014672  0.03366701  0.17085688    -0.83470
O1255       O  0.48372564  0.16818320  0.95636549    -0.82930
C1256       C  0.49567045  0.12954942  0.03784836     0.96420
O1257       O  0.49212991  0.12032871  0.02011385    -0.72050
O1258       O  0.45635939  0.13354462  0.00257672    -0.75640
Al1259     Al  0.48473074  0.13065040  0.99218269     1.48980
C1260       C  0.44230215  0.14563759  0.99444702     0.91670
O1261       O  0.46552459  0.19066199  0.01099855    -0.81860
O1262       O  0.52607945  0.18147187  0.99353686    -0.75420
Al1263     Al  0.47487549  0.17840598  0.98419798     1.90120
O1264       O  0.49755326  0.18930691  0.02645358    -0.74490
O1265       O  0.53058029  0.14178396  0.00699966    -0.74340
O1266       O  0.50012656  0.14930213  0.03858476    -0.80000
O1267       O  0.51276483  0.12506436  0.98154670    -0.78200
O1268       O  0.49046237  0.15807483  0.99726572    -1.14340
O1269       O  0.47611779  0.13444893  0.96282276    -0.73530
C1270       C  0.48202809  0.14897075  0.94997832     0.97180
C1271       C  0.47826389  0.19592668  0.02605387     0.93580
Al1272     Al  0.51184334  0.16504932  0.01488074     1.55560
O1273       O  0.44780280  0.16214896  0.98383394    -0.78150
C1274       C  0.52990928  0.12790525  0.99213943     0.97750
C1275       C  0.51822395  0.19723859  0.98350505     0.92630
O1276       O  0.49797786  0.19911712  0.98164825    -0.83470
O1277       O  0.62134041  0.32650504  0.98416800    -0.82930
C1278       C  0.64868865  0.24095578  0.99496908     0.96420
O1279       O  0.65923391  0.25788512  0.99750474    -0.72050
O1280       O  0.64871274  0.27370585  0.96004044    -0.75640
Al1281     Al  0.65123844  0.28535765  0.98767503     1.48980
C1282       C  0.63840135  0.28239390  0.94490386     0.91670
O1283       O  0.58854579  0.27625645  0.96558453    -0.81860
O1284       O  0.59753458  0.28669029  0.02521931    -0.75420
Al1285     Al  0.60602492  0.30008493  0.97531514     1.90120
O1286       O  0.58969965  0.25645320  0.99486529    -0.74490
O1287       O  0.63603562  0.27139393  0.03168145    -0.74340
O1288       O  0.62858407  0.24119837  0.99825095    -0.80000
O1289       O  0.65450019  0.29697923  0.01580455    -0.78200
O1290       O  0.62316153  0.28353198  0.99130495    -1.14340
O1291       O  0.65248289  0.31330819  0.97591875    -0.73530
C1292       C  0.64157415  0.32892479  0.98229463     0.97180
C1293       C  0.58221976  0.26027592  0.97647966     0.93580
Al1294     Al  0.61356088  0.26536830  0.01096907     1.55560
O1295       O  0.62327909  0.29587965  0.94879871    -0.78150
C1296       C  0.64941527  0.28677750  0.03271646     0.97750
C1297       C  0.58549466  0.30123934  0.01786214     0.92630
O1298       O  0.58597343  0.30642226  0.99819398    -0.83470
O1299       O  0.05154196  0.91816434  0.21295480    -0.82930
C1300       C  0.97237947  0.88243809  0.23261110     0.96420
O1301       O  0.98887999  0.87906778  0.22119694    -0.72050
O1302       O  0.02391898  0.88588314  0.19874550    -0.75640
Al1303     Al  0.01710033  0.88715728  0.22894982     1.48980
C1304       C  0.01601287  0.89729085  0.18395269     0.91670
O1305       O  0.99900055  0.95165833  0.20790618    -0.81860
O1306       O  0.00369950  0.95035189  0.25453694    -0.75420
Al1307     Al  0.02356291  0.93291828  0.21224460     1.90120
O1308       O  0.97346241  0.93531094  0.22581156    -0.74490
O1309       O  0.00367082  0.91232149  0.27314051    -0.74340
O1310       O  0.97163452  0.89841845  0.24528054    -0.80000
O1311       O  0.01138691  0.88129943  0.25835256    -0.78200
O1312       O  0.01022287  0.91467951  0.22995078    -1.14340
O1313       O  0.04566326  0.89301092  0.23697277    -0.73530
C1314       C  0.05856945  0.90443454  0.22633339     0.97180
C1315       C  0.97920926  0.94911846  0.21229758     0.93580
Al1316     Al  0.98983545  0.92358311  0.24807549     1.55560
O1317       O  0.01355242  0.91727044  0.18702088    -0.78150
C1318       C  0.00724470  0.89247622  0.27479266     0.97750
C1319       C  0.02234526  0.95783519  0.25088772     0.92630
O1320       O  0.03397670  0.95033781  0.23581150    -0.83470
O1321       O  0.88209792  0.04189985  0.19929246    -0.82930
C1322       C  0.85857657  0.03343991  0.28731802     0.96420
O1323       O  0.84652083  0.03393345  0.27107599    -0.72050
O1324       O  0.85507004  0.06865842  0.25077845    -0.75640
Al1325     Al  0.85186624  0.04031473  0.24174505     1.48980
C1326       C  0.86174026  0.08277620  0.23809339     0.91670
O1327       O  0.91166006  0.06536387  0.24768002    -0.81860
O1328       O  0.90495523  0.00368527  0.23646243    -0.75420
Al1329     Al  0.89609232  0.05314750  0.22434497     1.90120
O1330       O  0.91594514  0.03507711  0.26570578    -0.74490
O1331       O  0.86861347  0.99659163  0.25654526    -0.74340
O1332       O  0.87855069  0.02990518  0.28518443    -0.80000
O1333       O  0.84732156  0.01197768  0.23308598    -0.78200
O1334       O  0.87989968  0.03700994  0.24197127    -1.14340
O1335       O  0.84953878  0.04754163  0.21195987    -0.73530
C1336       C  0.86197182  0.04314966  0.19648535     0.97180
C1337       C  0.92048020  0.05464968  0.26249538     0.93580
Al1338     Al  0.89136771  0.01782059  0.25952255     1.55560
O1339       O  0.87698783  0.07855033  0.22505040    -0.78150
C1340       C  0.85308824  0.99549872  0.24332629     0.97750
C1341       C  0.91734367  0.01146234  0.22241245     0.92630
O1342       O  0.91798498  0.03153863  0.21936084    -0.83470
O1343       O  0.30240752  0.29951418  0.63111272    -0.82930
C1344       C  0.21833216  0.28708265  0.59504095     0.96420
O1345       O  0.23652986  0.28799212  0.58620391    -0.72050
O1346       O  0.25977932  0.32145679  0.59406815    -0.75640
Al1347     Al  0.26513718  0.29152852  0.59514457     1.48980
C1348       C  0.26385903  0.33662965  0.60694585     0.91670
O1349       O  0.24904920  0.31617083  0.65848841    -0.81860
O1350       O  0.25788218  0.25678287  0.64941387    -0.75420
Al1351     Al  0.27410904  0.30632981  0.64254064     1.90120
O1352       O  0.22869482  0.28785240  0.65529833    -0.74490
O1353       O  0.24297965  0.25065026  0.61100632    -0.74340
O1354       O  0.21666780  0.28528471  0.61518759    -0.80000
O1355       O  0.27087955  0.26116472  0.59244925    -0.78200
O1356       O  0.25936405  0.29012234  0.62337247    -1.14340
O1357       O  0.29505796  0.29539482  0.59711327    -0.73530
C1358       C  0.30856115  0.29671107  0.61198925     0.97180
C1359       C  0.23264648  0.30550890  0.66394305     0.93580
Al1360     Al  0.23860939  0.27196037  0.63207623     1.55560
O1361       O  0.27140217  0.33283599  0.62561993    -0.78150
C1362       C  0.25713721  0.24689363  0.59710966     0.97750
C1363       C  0.27255055  0.26298737  0.66202840     0.92630
O1364       O  0.27881595  0.28246472  0.66224425    -0.83470
O1365       O  0.06628613  0.90425255  0.49326922    -0.82930
C1366       C  0.97878638  0.93071651  0.49331547     0.96420
O1367       O  0.99564412  0.94173913  0.49483308    -0.72050
O1368       O  0.01590596  0.92522438  0.52735778    -0.75640
Al1369     Al  0.02456635  0.93388919  0.49994663     1.48980
C1370       C  0.02667926  0.91263732  0.53903064     0.91670
O1371       O  0.01851410  0.86958018  0.51100834    -0.81860
O1372       O  0.02525329  0.88815487  0.45224742    -0.75420
Al1373     Al  0.04130386  0.88778839  0.50187199     1.90120
O1374       O  0.99729096  0.87321764  0.48276757    -0.74490
O1375       O  0.00811701  0.92646983  0.45443623    -0.74340
O1376       O  0.97986856  0.91164844  0.48644731    -0.80000
O1377       O  0.03308941  0.94394643  0.47263094    -0.78200
O1378       O  0.02324526  0.90709705  0.49066760    -1.14340
O1379       O  0.05395017  0.93369217  0.50796742    -0.73530
C1380       C  0.06917267  0.92340120  0.49941875     0.97180
C1381       C  0.00266503  0.86351289  0.49978315     0.93580
Al1382     Al  0.00417176  0.90033129  0.47057302     1.55560
O1383       O  0.04054279  0.89989486  0.53089288    -0.78150
C1384       C  0.02211473  0.94135031  0.45569375     0.97750
C1385       C  0.03908666  0.87403479  0.45675287     0.92630
O1386       O  0.04515336  0.87141889  0.47596068    -0.83470
O1387       O  0.88531555  0.03914202  0.53760931    -0.82930
C1388       C  0.90590902  0.02872145  0.45005766     0.96420
O1389       O  0.91847904  0.02864261  0.46591090    -0.72050
O1390       O  0.91055565  0.06486297  0.48474777    -0.75640
Al1391     Al  0.91371804  0.03700373  0.49490588     1.48980
C1392       C  0.90115634  0.07961548  0.49500480     0.91670
O1393       O  0.85201185  0.06087079  0.49115250    -0.81860
O1394       O  0.86067765  0.00009211  0.50091957    -0.75420
Al1395     Al  0.86962304  0.04959750  0.51330639     1.90120
O1396       O  0.84860982  0.03111307  0.47205763    -0.74490
O1397       O  0.89689249  0.99323450  0.48122260    -0.74340
O1398       O  0.88588387  0.02645913  0.45262919    -0.80000
O1399       O  0.91814980  0.00892034  0.50478640    -0.78200
O1400       O  0.88542180  0.03367070  0.49526600    -1.14340
O1401       O  0.91688176  0.04653291  0.52404080    -0.73530
C1402       C  0.90548214  0.04051875  0.53964983     0.97180
C1403       C  0.84299299  0.05020697  0.47642000     0.93580
Al1404     Al  0.87374205  0.01426105  0.47806421     1.55560
O1405       O  0.88744462  0.07541966  0.50971977    -0.78150
C1406       C  0.91205443  0.99217403  0.49495455     0.97750
C1407       C  0.84919135  0.00751588  0.51585891     0.92630
O1408       O  0.84889552  0.02743596  0.51999488    -0.83470
O1409       O  0.05169347  0.03099742  0.61248389    -0.82930
C1410       C  0.96674952  0.00605284  0.59682582     0.96420
O1411       O  0.98195367  0.00007617  0.58452416    -0.72050
O1412       O  0.99992030  0.03765603  0.57738347    -0.75640
Al1413     Al  0.01122420  0.01061962  0.58563878     1.48980
C1414       C  0.00871403  0.05541619  0.58174699     0.91670
O1415       O  0.99857902  0.05066228  0.63589904    -0.81860
O1416       O  0.02109479  0.99162017  0.64647554    -0.75420
Al1417     Al  0.02433949  0.03934977  0.62364299     1.90120
O1418       O  0.98903599  0.02088409  0.65186583    -0.74490
O1419       O  0.99899293  0.97327896  0.61435526    -0.74340
O1420       O  0.96957136  0.00729298  0.61691329    -0.80000
O1421       O  0.02318283  0.98337338  0.59080577    -0.78200
O1422       O  0.01065824  0.01657275  0.61338138    -1.14340
O1423       O  0.03982503  0.02049076  0.58091013    -0.73530
C1424       C  0.05476486  0.02754346  0.59277002     0.97180
C1425       C  0.98913237  0.04110323  0.65101851     0.93580
Al1426     Al  0.99567133  0.99948255  0.63099781     1.55560
O1427       O  0.01918762  0.05777487  0.59910058    -0.78150
C1428       C  0.01360356  0.96870439  0.60086664     0.97750
C1429       C  0.03376072  0.00531326  0.65483801     0.92630
O1430       O  0.03303190  0.02505130  0.64968567    -0.83470
O1431       O  0.14165163  0.99714214  0.48015012    -0.82930
C1432       C  0.12360449  0.08610640  0.49073618     0.96420
O1433       O  0.11008887  0.07083561  0.49129643    -0.72050
O1434       O  0.11066283  0.04623714  0.45845288    -0.75640
Al1435     Al  0.11223328  0.04027408  0.48733026     1.48980
C1436       C  0.11920744  0.03736213  0.44246345     0.91670
O1437       O  0.17016410  0.04530839  0.45652356    -0.81860
O1438       O  0.16756141  0.03348271  0.51911572    -0.75420
Al1439     Al  0.15516238  0.02221877  0.46939030     1.90120
O1440       O  0.17940792  0.06087811  0.48690957    -0.74490
O1441       O  0.13385739  0.05776719  0.52823125    -0.74340
O1442       O  0.14354499  0.08266488  0.49291583    -0.80000
O1443       O  0.11009743  0.03452566  0.51669203    -0.78200
O1444       O  0.14071400  0.03981935  0.48726313    -1.14340
O1445       O  0.10868472  0.00992034  0.48324992    -0.73530
C1446       C  0.12179716  0.99433472  0.48345089     0.97180
C1447       C  0.18134513  0.05867055  0.46680513     0.93580
Al1448     Al  0.15501787  0.05711565  0.50526113     1.55560
O1449       O  0.13499511  0.02460628  0.44502503    -0.78150
C1450       C  0.11759438  0.04603765  0.53146536     0.97750
C1451       C  0.17972676  0.01983873  0.51021040     0.92630
O1452       O  0.17854378  0.01634047  0.49001887    -0.83470
O1453       O  0.99208628  0.16068526  0.43924237    -0.82930
C1454       C  0.01415938  0.12258581  0.51730454     0.96420
O1455       O  0.00728498  0.11760782  0.49891228    -0.72050
O1456       O  0.98167574  0.12576809  0.46679147    -0.75640
Al1457     Al  0.01247116  0.13009274  0.47196005     1.48980
C1458       C  0.96559587  0.13690973  0.47318407     0.91670
O1459       O  0.98360258  0.19229452  0.49114964    -0.81860
O1460       O  0.02780505  0.19487236  0.49100824    -0.75420
Al1461     Al  0.99045222  0.17421010  0.46718432     1.90120
O1462       O  0.99724822  0.17452187  0.51804512    -0.74490
O1463       O  0.05089453  0.15971890  0.49288202    -0.74340
O1464       O  0.02222112  0.14090378  0.52061110    -0.80000
O1465       O  0.04304369  0.12938044  0.47642909    -0.78200
O1466       O  0.00901865  0.15686235  0.48099050    -1.14340
O1467       O  0.01896512  0.13859244  0.44349328    -0.73530
C1468       C  0.00629981  0.14850440  0.43131335     0.97180
C1469       C  0.98494896  0.18891478  0.51108122     0.93580
Al1470     Al  0.02324940  0.16679122  0.50373928     1.55560
O1471       O  0.96694431  0.15699794  0.47547647    -0.78150
C1472       C  0.05669904  0.14230832  0.48427971     0.97750
C1473       C  0.02594029  0.20167331  0.47179079     0.92630
O1474       O  0.01310304  0.19289627  0.45856937    -0.83470
O1475       O  0.94874026  0.28297004  0.61804249    -0.82930
C1476       C  0.03320423  0.28062301  0.64697450     0.96420
O1477       O  0.01553081  0.28989145  0.65069167    -0.72050
O1478       O  0.97668114  0.30544023  0.64545689    -0.75640
Al1479     Al  0.98833497  0.27693109  0.64685490     1.48980
C1480       C  0.98034225  0.31946683  0.63133516     0.91670
O1481       O  0.99787865  0.29395060  0.57934535    -0.81860
O1482       O  0.00063290  0.24779905  0.58468431    -0.75420
Al1483     Al  0.97514071  0.28699430  0.60030666     1.90120
O1484       O  0.02691156  0.28146882  0.59511352    -0.74490
O1485       O  0.00490815  0.23270692  0.62427565    -0.74340
O1486       O  0.03405746  0.26557122  0.63319482    -0.80000
O1487       O  0.99901645  0.24920582  0.65498662    -0.78200
O1488       O  0.99259895  0.27378137  0.61888637    -1.14340
O1489       O  0.96094803  0.26427593  0.64548623    -0.73530
C1490       C  0.94538291  0.27147929  0.63471091     0.97180
C1491       C  0.01833878  0.29356683  0.58134323     0.93580
Al1492     Al  0.01476708  0.25810711  0.60987351     1.55560
O1493       O  0.98157358  0.31433910  0.61187146    -0.78150
C1494       C  0.00254574  0.23215338  0.64445441     0.97750
C1495       C  0.98137574  0.24843342  0.57803539     0.92630
O1496       O  0.96767773  0.26109930  0.58608761    -0.83470
O1497       O  0.11820843  0.33630370  0.48955269    -0.82930
C1498       C  0.14795862  0.25003564  0.49580012     0.96420
O1499       O  0.15885485  0.26711035  0.49664288    -0.72050
O1500       O  0.15147654  0.28872428  0.46230322    -0.75640
Al1501     Al  0.15150991  0.29638721  0.49125338     1.48980
C1502       C  0.14144536  0.29835770  0.44768682     0.91670
O1503       O  0.09147533  0.28568507  0.46474159    -0.81860
O1504       O  0.09707673  0.29443115  0.52681894    -0.75420
Al1505     Al  0.10581208  0.30993060  0.47772870     1.90120
O1506       O  0.08876584  0.26627203  0.49415697    -0.74490
O1507       O  0.13478210  0.27707109  0.53278843    -0.74340
O1508       O  0.12774698  0.25047273  0.49819800    -0.80000
O1509       O  0.15369993  0.30419716  0.52042080    -0.78200
O1510       O  0.12320061  0.29325556  0.49333587    -1.14340
O1511       O  0.15173244  0.32639725  0.48492271    -0.73530
C1512       C  0.13817906  0.34074821  0.48962799     0.97180
C1513       C  0.08382386  0.26976819  0.47481171     0.93580
Al1514     Al  0.11275370  0.27380079  0.51149384     1.55560
O1515       O  0.12498788  0.30999916  0.45207281    -0.78150
C1516       C  0.14914972  0.29123064  0.53521780     0.97750
C1517       C  0.08281774  0.30687312  0.51961275     0.92630
O1518       O  0.08318524  0.31253484  0.49994880    -0.83470
O1519       O  0.27030629  0.15791565  0.44684780    -0.82930
C1520       C  0.25221271  0.18415563  0.53220094     0.96420
O1521       O  0.25233272  0.19636539  0.51587442    -0.72050
O1522       O  0.28687683  0.19374876  0.49344669    -0.75640
Al1523     Al  0.25837294  0.19126803  0.48582031     1.48980
C1524       C  0.30363366  0.18370243  0.48818389     0.91670
O1525       O  0.28814068  0.13342258  0.49973882    -0.81860
O1526       O  0.22713395  0.13650875  0.48129593    -0.75420
Al1527     Al  0.27809522  0.14685171  0.47412191     1.90120
O1528       O  0.25604082  0.12631473  0.51270060    -0.74490
O1529       O  0.21633962  0.17192220  0.50242159    -0.74340
O1530       O  0.24980100  0.16411531  0.53032559    -0.80000
O1531       O  0.22915800  0.19263184  0.47752577    -0.78200
O1532       O  0.25867884  0.16301625  0.48833256    -1.14340
O1533       O  0.26454592  0.19158271  0.45586760    -0.73530
C1534       C  0.26630298  0.17702962  0.44179873     0.97180
C1535       C  0.27618287  0.12349063  0.51271173     0.93580
Al1536     Al  0.23899899  0.15063403  0.50514036     1.55560
O1537       O  0.30238709  0.16639377  0.47754952    -0.78150
C1538       C  0.21356421  0.18674348  0.48891258     0.97750
C1539       C  0.23731160  0.12398532  0.46886119     0.92630
O1540       O  0.25778899  0.12421644  0.46784600    -0.83470
O1541       O  0.31307578  0.02598535  0.60493502    -0.82930
C1542       C  0.22931652  0.02631600  0.64106669     0.96420
O1543       O  0.24733233  0.02677120  0.65042983    -0.72050
O1544       O  0.26732801  0.99380918  0.63544674    -0.75640
Al1545     Al  0.27571493  0.02191138  0.63986552     1.48980
C1546       C  0.27496197  0.98092353  0.62180332     0.91670
O1547       O  0.26197588  0.00553343  0.57624723    -0.81860
O1548       O  0.26882999  0.06521171  0.59148886    -0.75420
Al1549     Al  0.28640991  0.01590395  0.59205613     1.90120
O1550       O  0.24047736  0.03330836  0.58118242    -0.74490
O1551       O  0.25553958  0.06543974  0.63155119    -0.74340
O1552       O  0.22801304  0.03119395  0.62144785    -0.80000
O1553       O  0.28408833  0.05026889  0.64594219    -0.78200
O1554       O  0.27050676  0.02828836  0.61258484    -1.14340
O1555       O  0.30568673  0.01466122  0.63708242    -0.73530
C1556       C  0.31882278  0.02293587  0.62414646     0.97180
C1557       C  0.24515211  0.01602232  0.57155134     0.93580
Al1558     Al  0.24991384  0.04725924  0.60675095     1.55560
O1559       O  0.28667046  0.98749957  0.60623214    -0.78150
C1560       C  0.27123895  0.06592977  0.64470151     0.97750
C1561       C  0.28190762  0.06038453  0.57671178     0.92630
O1562       O  0.28823056  0.04115961  0.57417629    -0.83470
O1563       O  0.01287569  0.00147380  0.36907063    -0.82930
C1564       C  0.01536304  0.09294905  0.36830159     0.96420
O1565       O  0.01208511  0.08042229  0.38360551    -0.72050
O1566       O  0.98167240  0.05362590  0.38899085    -0.75640
Al1567     Al  0.01217702  0.05090392  0.38783350     1.48980
C1568       C  0.96899519  0.03821767  0.38602546     0.91670
O1569       O  0.97930646  0.03965182  0.33566450    -0.81860
O1570       O  0.04012389  0.03246170  0.32611043    -0.75420
Al1571     Al  0.99627848  0.02118639  0.35228014     1.90120
O1572       O  0.00482192  0.06036810  0.32138349    -0.74490
O1573       O  0.05514081  0.05629213  0.35819996    -0.74340
O1574       O  0.02185846  0.08596650  0.35045852    -0.80000
O1575       O  0.04205162  0.04972650  0.39053418    -0.78200
O1576       O  0.01284307  0.04333060  0.36023717    -1.14340
O1577       O  0.01224178  0.02217109  0.39794872    -0.73530
C1578       C  0.01559587  0.00407163  0.38915330     0.97180
C1579       C  0.98520968  0.05422124  0.32272881     0.93580
Al1580     Al  0.02908517  0.05746375  0.34083528     1.55560
O1581       O  0.97481940  0.02283868  0.37425704    -0.78150
C1582       C  0.05779820  0.05242585  0.37806367     0.97750
C1583       C  0.02905878  0.01706757  0.31910328     0.92630
O1584       O  0.01143420  0.01262502  0.32770143    -0.83470
O1585       O  0.39160431  0.28182648  0.54763050    -0.82930
C1586       C  0.35617321  0.29528670  0.46437413     0.96420
O1587       O  0.34623458  0.29469181  0.48204083    -0.72050
O1588       O  0.35561834  0.25883585  0.50064232    -0.75640
Al1589     Al  0.35557610  0.28719406  0.51028315     1.48980
C1590       C  0.36665165  0.24380179  0.50842662     0.91670
O1591       O  0.41582086  0.26282631  0.49346079    -0.81860
O1592       O  0.40922914  0.32326939  0.50838785    -0.75420
Al1593     Al  0.40232287  0.27300816  0.51962157     1.90120
O1594       O  0.41633169  0.29377623  0.47655676    -0.74490
O1595       O  0.37035551  0.33056902  0.49376553    -0.74340
O1596       O  0.37633271  0.29797052  0.46386061    -0.80000
O1597       O  0.35323482  0.31550053  0.52039052    -0.78200
O1598       O  0.38361636  0.28983660  0.50559078    -1.14340
O1599       O  0.35741589  0.27911741  0.53964727    -0.73530
C1600       C  0.37204529  0.28188437  0.55337050     0.97180
C1601       C  0.42238480  0.27451024  0.47814536     0.93580
Al1602     Al  0.39250944  0.30975074  0.48721648     1.55560
O1603       O  0.38407733  0.24745757  0.51856049    -0.78150
C1604       C  0.35686948  0.33171924  0.50903459     0.97750
C1605       C  0.42297811  0.31502676  0.52080840     0.92630
O1606       O  0.42379251  0.29490891  0.52352709    -0.83470
O1607       O  0.20553074  0.42198550  0.50843409    -0.82930
C1608       C  0.29120395  0.39297755  0.49929790     0.96420
O1609       O  0.27431039  0.38167008  0.49846684    -0.72050
O1610       O  0.25637124  0.39198770  0.53440691    -0.75640
Al1611     Al  0.24569119  0.38925992  0.50658513     1.48980
C1612       C  0.24771549  0.40283600  0.54917098     0.91670
O1613       O  0.25831079  0.45131781  0.52672393    -0.81860
O1614       O  0.24342416  0.43832942  0.46660446    -0.75420
Al1615     Al  0.23295833  0.43572816  0.51711717     1.90120
O1616       O  0.27461461  0.45145998  0.49524393    -0.74490
O1617       O  0.26143969  0.40098223  0.46227157    -0.74340
O1618       O  0.29051101  0.41268515  0.49487724    -0.80000
O1619       O  0.23480454  0.38467132  0.47870735    -0.78200
O1620       O  0.24839648  0.41699760  0.50193446    -1.14340
O1621       O  0.21657408  0.38963460  0.51630387    -0.73530
C1622       C  0.20139179  0.40220514  0.51160359     0.97180
C1623       C  0.27273215  0.45861560  0.51418476     0.93580
Al1624     Al  0.26608749  0.42535317  0.48138607     1.55560
O1625       O  0.23511696  0.41860157  0.54456168    -0.78150
C1626       C  0.24615825  0.38744309  0.46209377     0.97750
C1627       C  0.23445923  0.45520165  0.47309846     0.92630
O1628       O  0.22931922  0.45682055  0.49298750    -0.83470
O1629       O  0.24134755  0.23866596  0.36194226    -0.82930
C1630       C  0.25161120  0.32066986  0.39905988     0.96420
O1631       O  0.25518393  0.30288956  0.40790034    -0.72050
O1632       O  0.22163924  0.28004594  0.40099057    -0.75640
Al1633     Al  0.25118275  0.27443181  0.39857388     1.48980
C1634       C  0.20576713  0.27737627  0.38863890     0.91670
O1635       O  0.22395280  0.29209095  0.33734361    -0.81860
O1636       O  0.28463241  0.28107075  0.34558741    -0.75420
Al1637     Al  0.23412770  0.26680090  0.35191803     1.90120
O1638       O  0.25402957  0.31003659  0.33747800    -0.74490
O1639       O  0.29036850  0.29849990  0.38397946    -0.74340
O1640       O  0.25394586  0.32277126  0.37880912    -0.80000
O1641       O  0.28157346  0.26841384  0.39947725    -0.78200
O1642       O  0.25124099  0.28070251  0.37069622    -1.14340
O1643       O  0.24705685  0.24510341  0.39591363    -0.73530
C1644       C  0.24581879  0.23226555  0.38050995     0.97180
C1645       C  0.23571777  0.30667637  0.32978580     0.93580
Al1646     Al  0.26913977  0.30127948  0.36200444     1.55560
O1647       O  0.20824008  0.26969253  0.36979525    -0.78150
C1648       C  0.29476542  0.28360506  0.39685732     0.97750
C1649       C  0.27760944  0.26681848  0.33267035     0.92630
O1650       O  0.25759596  0.26221568  0.33172342    -0.83470
O1651       O  0.51702158  0.24113999  0.38191226    -0.82930
C1652       C  0.51441731  0.32359044  0.34337636     0.96420
O1653       O  0.51626357  0.30549924  0.33445471    -0.72050
O1654       O  0.54953835  0.28469409  0.34840020    -0.75640
Al1655     Al  0.52058956  0.27717148  0.34493798     1.48980
C1656       C  0.56259492  0.27574751  0.36098448     0.91670
O1657       O  0.54088534  0.29247519  0.40560653    -0.81860
O1658       O  0.47919159  0.28350875  0.39608319    -0.75420
Al1659     Al  0.52872360  0.26754194  0.39266645     1.90120
O1660       O  0.51153031  0.31252463  0.40336181    -0.74490
O1661       O  0.47635457  0.29639701  0.35617074    -0.74340
O1662       O  0.50972569  0.32491308  0.36308841    -0.80000
O1663       O  0.49178486  0.26956957  0.33916771    -0.78200
O1664       O  0.51504494  0.28268191  0.37236275    -1.14340
O1665       O  0.52628525  0.24719778  0.34850136    -0.73530
C1666       C  0.51884968  0.23482041  0.36270801     0.97180
C1667       C  0.52986039  0.30856843  0.41135735     0.93580
Al1668     Al  0.49582752  0.30269759  0.37921722     1.55560
O1669       O  0.55588826  0.26474558  0.37679805    -0.78150
C1670       C  0.47554096  0.28132077  0.34247772     0.97750
C1671       C  0.48558349  0.27241681  0.41179009     0.92630
O1672       O  0.50527388  0.26731571  0.41322760    -0.83470
O1673       O  0.55201346  0.41055603  0.50294799    -0.82930
C1674       C  0.46257040  0.43098323  0.50036034     0.96420
O1675       O  0.47856658  0.44272870  0.50364101    -0.72050
O1676       O  0.50118361  0.43253643  0.53699208    -0.75640
Al1677     Al  0.50794907  0.43799442  0.50799668     1.48980
C1678       C  0.51458402  0.42391244  0.54952191     0.91670
O1679       O  0.50644541  0.37787286  0.52937992    -0.81860
O1680       O  0.51267316  0.38465727  0.46766197    -0.75420
Al1681     Al  0.52845711  0.39433019  0.51602251     1.90120
O1682       O  0.48443850  0.37569899  0.50120689    -0.74490
O1683       O  0.49452281  0.42175033  0.46187106    -0.74340
O1684       O  0.46503157  0.41185605  0.49442331    -0.80000
O1685       O  0.51438676  0.44534248  0.47928676    -0.78200
O1686       O  0.50881242  0.41039199  0.50211470    -1.14340
O1687       O  0.53784823  0.44074112  0.51406505    -0.73530
C1688       C  0.55311351  0.43086979  0.50505014     0.97180
C1689       C  0.48949612  0.37088617  0.52041645     0.93580
Al1690     Al  0.49076352  0.39924524  0.48290329     1.55560
O1691       O  0.52901579  0.41137102  0.54228406    -0.78150
C1692       C  0.50627007  0.43842423  0.46196273     0.97750
C1693       C  0.52613130  0.37161982  0.47506329     0.92630
O1694       O  0.53212621  0.37280568  0.49432579    -0.83470
O1695       O  0.36135493  0.04368071  0.05121285    -0.82930
C1696       C  0.40100391  0.03165383  0.96947094     0.96420
O1697       O  0.40940920  0.03379787  0.98776029    -0.72050
O1698       O  0.39613123  0.06976442  0.00440741    -0.75640
Al1699     Al  0.39822665  0.04186410  0.01502966     1.48980
C1700       C  0.38323438  0.08417857  0.01072731     0.91670
O1701       O  0.33716141  0.06210790  0.99648585    -0.81860
O1702       O  0.34689763  0.00207462  0.00986617    -0.75420
Al1703     Al  0.35038437  0.05236536  0.02297233     1.90120
O1704       O  0.34013373  0.03172270  0.97861410    -0.74490
O1705       O  0.38658916  0.99763423  0.99825245    -0.74340
O1706       O  0.38086088  0.02943770  0.96768815    -0.80000
O1707       O  0.40196241  0.01360776  0.02580604    -0.78200
O1708       O  0.37065040  0.03712160  0.00928891    -1.14340
O1709       O  0.39480700  0.05153346  0.04384569    -0.73530
C1710       C  0.38070026  0.04625765  0.05734403     0.97180
C1711       C  0.33301712  0.05065703  0.98010513     0.93580
Al1712     Al  0.36397594  0.01693127  0.99024703     1.55560
O1713       O  0.36683351  0.07945671  0.02219994    -0.78150
C1714       C  0.39889762  0.99693976  0.01443578     0.97750
C1715       C  0.33147822  0.00899520  0.02106755     0.92630
O1716       O  0.32996512  0.02882247  0.02558294    -0.83470
O1717       O  0.37024613  0.27147649  0.19931035    -0.82930
C1718       C  0.40774050  0.28579011  0.28099937     0.96420
O1719       O  0.41642557  0.28669299  0.26281741    -0.72050
O1720       O  0.40585806  0.24957094  0.24671049    -0.75640
Al1721     Al  0.40587664  0.27751725  0.23590737     1.48980
C1722       C  0.39359865  0.23425671  0.24130141     0.91670
O1723       O  0.34424303  0.25357037  0.25232573    -0.81860
O1724       O  0.35095779  0.31221527  0.24184882    -0.75420
Al1725     Al  0.35885034  0.26341139  0.22696886     1.90120
O1726       O  0.34769687  0.28216265  0.27270005    -0.74490
O1727       O  0.39034268  0.32063502  0.25264598    -0.74340
O1728       O  0.38763829  0.28773834  0.28284262    -0.80000
O1729       O  0.40736650  0.30619780  0.22510029    -0.78200
O1730       O  0.37780005  0.27996120  0.24131946    -1.14340
O1731       O  0.40400358  0.26695367  0.20758945    -0.73530
C1732       C  0.38973985  0.27022631  0.19379489     0.97180
C1733       C  0.34012144  0.26372687  0.26944121     0.93580
Al1734     Al  0.36959615  0.29911441  0.26085709     1.55560
O1735       O  0.37678551  0.23744871  0.22985778    -0.78150
C1736       C  0.40280890  0.32254879  0.23660355     0.97750
C1737       C  0.33821211  0.30573869  0.22744296     0.92630
O1738       O  0.33788708  0.28614712  0.22190419    -0.83470
O1739       O  0.55285396  0.41452973  0.23431429    -0.82930
C1740       C  0.46480963  0.38924977  0.23597737     0.96420
O1741       O  0.48186070  0.37862143  0.23670994    -0.72050
O1742       O  0.50183014  0.39140293  0.20202775    -0.75640
Al1743     Al  0.51032707  0.38637992  0.23046749     1.48980
C1744       C  0.51353842  0.40143782  0.18882196     0.91670
O1745       O  0.50663616  0.44913819  0.21104503    -0.81860
O1746       O  0.50975009  0.43906471  0.27100861    -0.75420
Al1747     Al  0.52840402  0.43101180  0.22277167     1.90120
O1748       O  0.48261906  0.44769125  0.23741946    -0.74490
O1749       O  0.49376716  0.40028509  0.27483666    -0.74340
O1750       O  0.46534894  0.40912560  0.24010184    -0.80000
O1751       O  0.51870124  0.38039492  0.25924352    -0.78200
O1752       O  0.50921020  0.41402132  0.23596849    -1.14340
O1753       O  0.53960647  0.38493421  0.22192158    -0.73530
C1754       C  0.55464266  0.39447424  0.23128818     0.97180
C1755       C  0.48943338  0.45557168  0.21996528     0.93580
Al1756     Al  0.48946768  0.42343666  0.25435580     1.55560
O1757       O  0.52740782  0.41513613  0.19533729    -0.78150
C1758       C  0.50801963  0.38560100  0.27588427     0.97750
C1759       C  0.52505116  0.45104508  0.26519629     0.92630
O1760       O  0.53242176  0.45026737  0.24631663    -0.83470
O1761       O  0.37482003  0.55125179  0.54079519    -0.82930
C1762       C  0.41063744  0.53999919  0.45807347     0.96420
O1763       O  0.41949397  0.53568383  0.47573537    -0.72050
O1764       O  0.41400602  0.57122930  0.49634969    -0.75640
Al1765     Al  0.41030808  0.54244047  0.50394256     1.48980
C1766       C  0.40318434  0.58763516  0.50141140     0.91670
O1767       O  0.35091488  0.57330152  0.48790341    -0.81860
O1768       O  0.35290633  0.51219569  0.49652247    -0.75420
Al1769     Al  0.36467242  0.56110295  0.51296017     1.90120
O1770       O  0.34999016  0.54452055  0.46769675    -0.74490
O1771       O  0.39171211  0.50295169  0.48262763    -0.74340
O1772       O  0.39034175  0.53911025  0.45623608    -0.80000
O1773       O  0.40897970  0.51287520  0.51171633    -0.78200
O1774       O  0.38206672  0.54339551  0.49822593    -1.14340
O1775       O  0.40911398  0.54934066  0.53345535    -0.73530
C1776       C  0.39405603  0.54854835  0.54684608     0.97180
C1777       C  0.34398494  0.56339456  0.47155007     0.93580
Al1778     Al  0.37200689  0.52618895  0.47754004     1.55560
O1779       O  0.38508024  0.58580047  0.51121723    -0.78150
C1780       C  0.40367481  0.49836719  0.49839914     0.97750
C1781       C  0.34007031  0.52006588  0.51026965     0.92630
O1782       O  0.34170998  0.53961718  0.51629045    -0.83470
O1783       O  0.52453644  0.58431589  0.35885199    -0.82930
C1784       C  0.51712369  0.50143519  0.39645203     0.96420
O1785       O  0.52008874  0.51924826  0.40577484    -0.72050
O1786       O  0.55430274  0.53876604  0.39161839    -0.75640
Al1787     Al  0.52578090  0.54770674  0.39567956     1.48980
C1788       C  0.56763908  0.54650960  0.37848508     0.91670
O1789       O  0.54285646  0.53131586  0.33332700    -0.81860
O1790       O  0.48320952  0.54485684  0.34758317    -0.75420
Al1791     Al  0.53330031  0.55702100  0.34741003     1.90120
O1792       O  0.51229808  0.51357588  0.33659624    -0.74490
O1793       O  0.48088335  0.53033796  0.38607016    -0.74340
O1794       O  0.51242301  0.50074500  0.37672435    -0.80000
O1795       O  0.49722918  0.55697862  0.40225125    -0.78200
O1796       O  0.51951510  0.54269180  0.36830869    -1.14340
O1797       O  0.53307932  0.57738242  0.39229487    -0.73530
C1798       C  0.52733916  0.59050667  0.37798403     0.97180
C1799       C  0.53059799  0.51594932  0.32802897     0.93580
Al1800     Al  0.49896628  0.52397910  0.36207307     1.55560
O1801       O  0.56129533  0.55732156  0.36233089    -0.78150
C1802       C  0.48053281  0.54572997  0.39934575     0.97750
C1803       C  0.48874960  0.55526109  0.33119508     0.92630
O1804       O  0.50854182  0.55930807  0.32800584    -0.83470
O1805       O  0.21302447  0.41040410  0.23934353    -0.82930
C1806       C  0.29668851  0.43730732  0.25422093     0.96420
O1807       O  0.28052807  0.44594270  0.26285255    -0.72050
O1808       O  0.26172984  0.44630223  0.22524680    -0.75640
Al1809     Al  0.25221756  0.44088206  0.25346449     1.48980
C1810       C  0.25654329  0.43726238  0.20773898     0.91670
O1811       O  0.26565201  0.38321064  0.21875818    -0.81860
O1812       O  0.25220366  0.38310952  0.27980380    -0.75420
Al1813     Al  0.24061345  0.39835124  0.23039953     1.90120
O1814       O  0.28172576  0.37743589  0.24931349    -0.74490
O1815       O  0.27114783  0.41896419  0.29170720    -0.74340
O1816       O  0.29780394  0.41691524  0.25423003    -0.80000
O1817       O  0.24245202  0.43725208  0.28254676    -0.78200
O1818       O  0.25538536  0.41281015  0.25018724    -1.14340
O1819       O  0.22353686  0.44323162  0.24486072    -0.73530
C1820       C  0.20874277  0.42971558  0.24400389     0.97180
C1821       C  0.27987101  0.37358401  0.22972483     0.93580
Al1822     Al  0.27424258  0.40001215  0.26738197     1.55560
O1823       O  0.24560565  0.41987192  0.20781242    -0.78150
C1824       C  0.25547062  0.43093495  0.29687784     0.97750
C1825       C  0.23831874  0.37199372  0.26971366     0.92630
O1826       O  0.23413556  0.37506258  0.24990256    -0.83470
O1827       O  0.05507239  0.38845817  0.00691084    -0.82930
C1828       C  0.97353741  0.42357418  0.99903200     0.96420
O1829       O  0.99202982  0.42735270  0.00658198    -0.72050
O1830       O  0.02920029  0.41910288  0.02380571    -0.75640
Al1831     Al  0.01831306  0.41820104  0.99473747     1.48980
C1832       C  0.02300063  0.40775291  0.03944394     0.91670
O1833       O  0.00328649  0.35287568  0.01729445    -0.81860
O1834       O  0.99994058  0.35600893  0.97246685    -0.75420
Al1835     Al  0.02688624  0.37244533  0.01020882     1.90120
O1836       O  0.97518639  0.37072036  0.00594414    -0.74490
O1837       O  0.99703270  0.39351187  0.95375824    -0.74340
O1838       O  0.97060921  0.40772985  0.98662516    -0.80000
O1839       O  0.00899164  0.42412114  0.96645475    -0.78200
O1840       O  0.01085598  0.39095975  0.99505245    -1.14340
O1841       O  0.04517720  0.41108633  0.98220970    -0.73530
C1842       C  0.05990875  0.40346099  0.99377959     0.97180
C1843       C  0.98297096  0.35515308  0.01630385     0.93580
Al1844     Al  0.98757624  0.38252993  0.98088747     1.55560
O1845       O  0.01995539  0.38776592  0.03670592    -0.78150
C1846       C  0.00322318  0.41256462  0.95085967     0.97750
C1847       C  0.01836681  0.34725245  0.97307367     0.92630
O1848       O  0.03343019  0.35507530  0.98478305    -0.83470
O1849       O  0.39529939  0.55451278  0.19488760    -0.82930
C1850       C  0.35971002  0.53189645  0.27533987     0.96420
O1851       O  0.34964244  0.53526981  0.25803268    -0.72050
O1852       O  0.35818039  0.57190478  0.24265298    -0.75640
Al1853     Al  0.35826609  0.54512486  0.23036693     1.48980
C1854       C  0.36926655  0.58802145  0.23826319     0.91670
O1855       O  0.41760198  0.56665116  0.25163158    -0.81860
O1856       O  0.41081624  0.50830768  0.22659359    -0.75420
Al1857     Al  0.40519980  0.56010556  0.22378906     1.90120
O1858       O  0.41990968  0.53297330  0.26172326    -0.74490
O1859       O  0.37200924  0.50017196  0.24247280    -0.74340
O1860       O  0.37980755  0.52866539  0.27521134    -0.80000
O1861       O  0.35464735  0.51779538  0.21758279    -0.78200
O1862       O  0.38622499  0.54162294  0.23480290    -1.14340
O1863       O  0.36069509  0.55607618  0.20207466    -0.73530
C1864       C  0.37587223  0.55428150  0.18871675     0.97180
C1865       C  0.42482127  0.55245852  0.26435567     0.93580
Al1866     Al  0.39507677  0.51931139  0.25007554     1.52680
O1867       O  0.38676906  0.58588213  0.22766320    -0.78150
C1868       C  0.35726410  0.50108628  0.22852230     0.97750
C1869       C  0.42644170  0.51811196  0.21801584     0.92630
O1870       O  0.42715639  0.53850981  0.21805799    -0.83470
O1871       O  0.24857383  0.58613214  0.36950013    -0.82930
C1872       C  0.25743404  0.49672603  0.35521757     0.96420
O1873       O  0.25421905  0.51085528  0.34102363    -0.72050
O1874       O  0.22080253  0.53441836  0.34564587    -0.75640
Al1875     Al  0.24989880  0.54118571  0.34179133     1.48980
C1876       C  0.20666662  0.54590282  0.35434220     0.91670
O1877       O  0.22813765  0.53839973  0.40336350    -0.81860
O1878       O  0.29011150  0.55337853  0.39090519    -0.75420
Al1879     Al  0.23892906  0.56185977  0.38577938     1.90120
O1880       O  0.26079454  0.52582796  0.40905835    -0.74490
O1881       O  0.29477082  0.52718723  0.35802319    -0.74340
O1882       O  0.26304480  0.50178045  0.37403182    -0.80000
O1883       O  0.27880396  0.54692439  0.33373425    -0.78200
O1884       O  0.25475435  0.54379624  0.36971158    -1.14340
O1885       O  0.24456627  0.57134194  0.33738504    -0.73530
C1886       C  0.24817889  0.58761942  0.34917140     0.97180
C1887       C  0.24071286  0.52549141  0.41297231     0.93580
Al1888     Al  0.27546901  0.52843854  0.38205400     1.55560
O1889       O  0.21205708  0.55962031  0.36856786    -0.78150
C1890       C  0.29497195  0.53651089  0.34010795     0.97750
C1891       C  0.28268403  0.56566140  0.40524249     0.92630
O1892       O  0.26229739  0.56847424  0.40663609    -0.83470
O1893       O  0.89204375  0.52912643  0.69085979    -0.82930
C1894       C  0.86400932  0.52781596  0.77696995     0.96420
O1895       O  0.85210008  0.52568630  0.76054097    -0.72050
O1896       O  0.85865286  0.55631927  0.73425152    -0.75640
Al1897     Al  0.85788947  0.52642882  0.73059577     1.48980
C1898       C  0.87168191  0.57050245  0.72814977     0.91670
O1899       O  0.92093624  0.54914480  0.74136564    -0.81860
O1900       O  0.90794757  0.48791985  0.73307029    -0.75420
Al1901     Al  0.90496288  0.53800180  0.71734164     1.90120
O1902       O  0.92265209  0.51913129  0.75918285    -0.74490
O1903       O  0.87176180  0.48654754  0.75488578    -0.74340
O1904       O  0.88383360  0.52288213  0.77646272    -0.80000
O1905       O  0.85324743  0.49621895  0.72673927    -0.78200
O1906       O  0.88622112  0.52359646  0.73380860    -1.14340
O1907       O  0.85799744  0.52815869  0.70032107    -0.73530
C1908       C  0.87243269  0.52677209  0.68617899     0.97180
C1909       C  0.92874760  0.53809333  0.75635265     0.93580
Al1910     Al  0.89584027  0.50571207  0.75403719     1.55560
O1911       O  0.88916791  0.56536610  0.71868284    -0.78150
C1912       C  0.85740401  0.48267797  0.74115835     0.97750
C1913       C  0.92122700  0.49320639  0.71856876     0.92630
O1914       O  0.92385327  0.51288717  0.71343113    -0.83470
O1915       O  0.56409701  0.92048126  0.74318961    -0.82930
C1916       C  0.47861521  0.89193721  0.76090541     0.96420
O1917       O  0.49588789  0.88159741  0.76374056    -0.72050
O1918       O  0.51557220  0.88381362  0.72684124    -0.75640
Al1919     Al  0.52477550  0.88852768  0.75478863     1.48980
C1920       C  0.52204283  0.89214557  0.70962903     0.91670
O1921       O  0.51093165  0.94524888  0.72043920    -0.81860
O1922       O  0.52273412  0.94738575  0.78167702    -0.75420
Al1923     Al  0.53620069  0.93163390  0.73311909     1.90120
O1924       O  0.49234719  0.95025951  0.75002371    -0.74490
O1925       O  0.50729366  0.91080036  0.79436881    -0.74340
O1926       O  0.47887177  0.91207956  0.75963490    -0.80000
O1927       O  0.53461006  0.89144752  0.78317551    -0.78200
O1928       O  0.52101176  0.91667892  0.75239135    -1.14340
O1929       O  0.55408227  0.88711040  0.74641976    -0.73530
C1930       C  0.56880794  0.90088599  0.74612688     0.97180
C1931       C  0.49508085  0.95365791  0.73024362     0.93580
Al1932     Al  0.50198311  0.92919838  0.76990377     1.55560
O1933       O  0.53323860  0.90943693  0.71017703    -0.78150
C1934       C  0.52287865  0.89825982  0.79832048     0.97750
C1935       C  0.53569632  0.95957576  0.77210618     0.92630
O1936       O  0.54094265  0.95629798  0.75251361    -0.83470
O1937       O  0.21707243  0.89877234  0.72122772    -0.82930
C1938       C  0.29875877  0.93865729  0.72656947     0.96420
O1939       O  0.28062327  0.94777574  0.72733063    -0.72050
O1940       O  0.25941676  0.93571298  0.69414617    -0.75640
Al1941     Al  0.25223124  0.93724328  0.72322849     1.48980
C1942       C  0.25384524  0.92238975  0.68000459     0.91670
O1943       O  0.27069185  0.87619372  0.70119578    -0.81860
O1944       O  0.25903633  0.88567438  0.76238670    -0.75420
Al1945     Al  0.24476113  0.88923345  0.71184827     1.90120
O1946       O  0.28904175  0.87827889  0.73130125    -0.74490
O1947       O  0.27320878  0.92586714  0.76597795    -0.74340
O1948       O  0.30055195  0.91901049  0.73146368    -0.80000
O1949       O  0.24492010  0.94203453  0.75273460    -0.78200
O1950       O  0.25855701  0.90963061  0.72706977    -1.14340
O1951       O  0.22238426  0.93329980  0.71774409    -0.73530
C1952       C  0.21002350  0.91770662  0.72127954     0.97180
C1953       C  0.28618558  0.87024107  0.71292241     0.93580
Al1954     Al  0.27871752  0.90273908  0.74618646     1.55560
O1955       O  0.24405727  0.90524979  0.68500410    -0.78150
C1956       C  0.25822359  0.93947315  0.76794886     0.97750
C1957       C  0.24806002  0.87027037  0.75477591     0.92630
O1958       O  0.24328767  0.86930088  0.73504519    -0.83470
O1959       O  0.87461219  0.25556029  0.78229721    -0.82930
C1960       C  0.88278035  0.24337938  0.69290303     0.96420
O1961       O  0.89615514  0.23647297  0.70659550    -0.72050
O1962       O  0.90285928  0.27191291  0.72824270    -0.75640
Al1963     Al  0.89732971  0.24363195  0.73676558     1.48980
C1964       C  0.89949335  0.28837589  0.73953396     0.91670
O1965       O  0.84539252  0.28356621  0.73708784    -0.81860
O1966       O  0.83695031  0.22167962  0.74869721    -0.75420
Al1967     Al  0.86066896  0.26836800  0.75837045     1.90120
O1968       O  0.82898593  0.25612053  0.72203952    -0.74490
O1969       O  0.86830099  0.20669842  0.72304178    -0.74340
O1970       O  0.86293956  0.24458639  0.69765165    -0.80000
O1971       O  0.89426201  0.21524849  0.74548218    -0.78200
O1972       O  0.86947601  0.24848605  0.73982799    -1.14340
O1973       O  0.90519514  0.24946923  0.76582428    -0.73530
C1974       C  0.89432969  0.25091349  0.78295265     0.97180
C1975       C  0.82984887  0.27602429  0.72647796     0.93580
Al1976     Al  0.85073603  0.23338439  0.72391615     1.55560
O1977       O  0.88448668  0.28834674  0.75348984    -0.78150
C1978       C  0.88370637  0.20122530  0.73548951     0.97750
C1979       C  0.83026080  0.23281721  0.76440793     0.92630
O1980       O  0.83602305  0.25220351  0.76700835    -0.83470
O1981       O  0.11823835  0.23755262  0.74099016    -0.82930
C1982       C  0.11656203  0.32589784  0.76047780     0.96420
O1983       O  0.10192678  0.31229476  0.76308402    -0.72050
O1984       O  0.09963616  0.29653699  0.72391318    -0.75640
Al1985     Al  0.09979482  0.28426018  0.75151638     1.48980
C1986       C  0.10236523  0.28493785  0.70741351     0.91670
O1987       O  0.15490508  0.28068822  0.71695981    -0.81860
O1988       O  0.15859385  0.26581910  0.77727737    -0.75420
Al1989     Al  0.13625507  0.26024650  0.72966931     1.90120
O1990       O  0.16822079  0.29590897  0.74615751    -0.74490
O1991       O  0.12630115  0.28953945  0.79273702    -0.74340
O1992       O  0.13596366  0.31997664  0.75942118    -0.80000
O1993       O  0.09849985  0.27223165  0.77880231    -0.78200
O1994       O  0.12763000  0.27867679  0.74966283    -1.14340
O1995       O  0.08940787  0.25749571  0.74090330    -0.73530
C1996       C  0.09798769  0.23935502  0.74307697     0.97180
C1997       C  0.16870410  0.29267984  0.72598933     0.93580
Al1998     Al  0.14586845  0.29178897  0.76757712     1.55560
O1999       O  0.11477474  0.26866482  0.70829866    -0.78150
C2000       C  0.10876291  0.27894762  0.79492988     0.97750
C2001       C  0.16511993  0.25048761  0.76567230     0.92630
O2002       O  0.15898109  0.24842110  0.74640963    -0.83470
O2003       O  0.99303731  0.12810625  0.78900821    -0.82930
C2004       C  0.00182962  0.16519995  0.70623767     0.96420
O2005       O  0.99827119  0.17463832  0.72392338    -0.72050
O2006       O  0.96381333  0.16082541  0.74324363    -0.75640
Al2007     Al  0.99226366  0.16504268  0.75244918     1.48980
C2008       C  0.95045889  0.14746040  0.75048050     0.91670
O2009       O  0.97589691  0.10344370  0.73571203    -0.81860
O2010       O  0.03570005  0.11774310  0.75090910    -0.75420
Al2011     Al  0.98485572  0.11701311  0.76168097     1.90120
O2012       O  0.00744960  0.10546207  0.71955117    -0.74490
O2013       O  0.03745864  0.15624494  0.73504651    -0.74340
O2014       O  0.00612408  0.14537431  0.70564890    -0.80000
O2015       O  0.02053371  0.17198122  0.76171144    -0.78200
O2016       O  0.99890956  0.13782448  0.74769694    -1.14340
O2017       O  0.98502738  0.16168961  0.78229502    -0.73530
C2018       C  0.99095807  0.14723331  0.79522560     0.97180
C2019       C  0.98875665  0.09760760  0.72108195     0.93580
Al2020     Al  0.01993444  0.13150392  0.72934683     1.55560
O2021       O  0.95676005  0.13148963  0.76150361    -0.78150
C2022       C  0.03707761  0.17004782  0.74995218     0.97750
C2023       C  0.02970214  0.10232144  0.76253881     0.92630
O2024       O  0.00977108  0.09827888  0.76478313    -0.83470
O2025       O  0.27160844  0.16611741  0.79401470    -0.82930
C2026       C  0.26675539  0.12987457  0.71085225     0.96420
O2027       O  0.26751071  0.12061006  0.72880282    -0.72050
O2028       O  0.30208634  0.13535665  0.74709649    -0.75640
Al2029     Al  0.27376401  0.13089545  0.75671420     1.48980
C2030       C  0.31530012  0.14888595  0.75451579     0.91670
O2031       O  0.28902313  0.19455184  0.74199224    -0.81860
O2032       O  0.22973220  0.17860985  0.75255810    -0.75420
Al2033     Al  0.28004305  0.17883992  0.76701164     1.90120
O2034       O  0.25981427  0.18952187  0.72258209    -0.74490
O2035       O  0.22912281  0.13929833  0.73878945    -0.74340
O2036       O  0.26190685  0.14950816  0.70987320    -0.80000
O2037       O  0.24536163  0.12446431  0.76639871    -0.78200
O2038       O  0.26696895  0.15815254  0.75195065    -1.14340
O2039       O  0.28223704  0.13378625  0.78598763    -0.73530
C2040       C  0.27506678  0.14695945  0.79955789     0.97180
C2041       C  0.27748323  0.19903450  0.72584586     0.93580
Al2042     Al  0.24680396  0.16394231  0.73256813     1.55560
O2043       O  0.30876654  0.16477065  0.76589703    -0.78150
C2044       C  0.22886630  0.12642679  0.75451767     0.97750
C2045       C  0.23478464  0.19331069  0.76555919     0.92630
O2046       O  0.25439871  0.19651822  0.77045304    -0.83470
O2047       O  0.12881412  0.97649564  0.75114606    -0.82930
C2048       C  0.16709611  0.05864848  0.74889844     0.96420
O2049       O  0.17621982  0.04068769  0.74718788    -0.72050
O2050       O  0.16241301  0.02124826  0.78111656    -0.75640
Al2051     Al  0.16517409  0.01275006  0.75257298     1.48980
C2052       C  0.14878531  0.01502597  0.79478297     0.91670
O2053       O  0.10253537  0.02760406  0.77278500    -0.81860
O2054       O  0.11368749  0.02086125  0.71252627    -0.75420
Al2055     Al  0.11720889  0.00318910  0.76157436     1.90120
O2056       O  0.10663974  0.04924058  0.74527518    -0.74490
O2057       O  0.15402093  0.03289476  0.70971621    -0.74340
O2058       O  0.14722486  0.06030455  0.74485248    -0.80000
O2059       O  0.16964100  0.00438849  0.72347128    -0.78200
O2060       O  0.13744800  0.01844296  0.74789374    -1.14340
O2061       O  0.16206566  0.98336306  0.75993274    -0.73530
C2062       C  0.14809194  0.97049397  0.75308221     0.97180
C2063       C  0.09805194  0.04476215  0.76310283     0.93580
Al2064     Al  0.13080676  0.03912984  0.72956481     1.55560
O2065       O  0.13287113  0.00321925  0.78923655    -0.78150
C2066       C  0.16696785  0.01714821  0.70788810     0.97750
C2067       C  0.09942862  0.00749267  0.71791067     0.92630
O2068       O  0.09788015  0.00124296  0.73723381    -0.83470
O2069       O  0.39729888  0.05038811  0.69152242    -0.82930
C2070       C  0.35382833  0.03878286  0.77034909     0.96420
O2071       O  0.34772315  0.03868234  0.75132920    -0.72050
O2072       O  0.36250485  0.07624370  0.73924084    -0.75640
Al2073     Al  0.36117024  0.04869463  0.72667254     1.48980
C2074       C  0.37578287  0.09071589  0.73373548     0.91670
O2075       O  0.42383771  0.06749822  0.74638427    -0.81860
O2076       O  0.41499868  0.00990853  0.73747032    -0.75420
Al2077     Al  0.40901785  0.05862760  0.72017766     1.90120
O2078       O  0.41492859  0.04108000  0.76804285    -0.74490
O2079       O  0.37345848  0.00440026  0.74258798    -0.74340
O2080       O  0.37367247  0.03681377  0.77435213    -0.80000
O2081       O  0.35905150  0.02062919  0.71436081    -0.78200
O2082       O  0.38854246  0.04394184  0.73382953    -1.14340
O2083       O  0.36518347  0.06097636  0.69939234    -0.73530
C2084       C  0.37806548  0.05411903  0.68562219     0.97180
C2085       C  0.42528171  0.05805055  0.76440086     0.93580
Al2086     Al  0.39395912  0.02461233  0.75395735     1.55560
O2087       O  0.39270066  0.08608621  0.72268868    -0.78150
C2088       C  0.36220456  0.00373429  0.72550271     0.97750
C2089       C  0.42898581  0.01575511  0.72393724     0.92630
O2090       O  0.42865070  0.03464521  0.71646295    -0.83470
O2091       O  0.04502342  0.39670195  0.73539128    -0.82930
C2092       C  0.96235929  0.35692103  0.74039017     0.96420
O2093       O  0.98086814  0.34854205  0.74151048    -0.72050
O2094       O  0.00321690  0.35840647  0.70833326    -0.75640
Al2095     Al  0.00938721  0.35866640  0.73779517     1.48980
C2096       C  0.00956018  0.37102303  0.69389637     0.91670
O2097       O  0.99301299  0.41734995  0.71047319    -0.81860
O2098       O  0.00043775  0.41348259  0.77257489    -0.75420
Al2099     Al  0.01794949  0.40551732  0.72375622     1.90120
O2100       O  0.97195119  0.41764708  0.73887856    -0.74490
O2101       O  0.98632731  0.37355290  0.77860372    -0.74340
O2102       O  0.96019849  0.37698546  0.74293621    -0.80000
O2103       O  0.01524972  0.35612904  0.76788232    -0.78200
O2104       O  0.00296701  0.38644276  0.73950351    -1.14340
O2105       O  0.03971131  0.36202726  0.73342860    -0.73530
C2106       C  0.05204945  0.37779577  0.73660118     0.97180
C2107       C  0.97619362  0.42365984  0.71997222     0.93580
Al2108     Al  0.98161134  0.39490180  0.75683316     1.55560
O2109       O  0.02034640  0.38763407  0.69846491    -0.78150
C2110       C  0.00086423  0.35968506  0.78192313     0.97750
C2111       C  0.01293536  0.42758764  0.76485407     0.92630
O2112       O  0.01825241  0.42723646  0.74527740    -0.83470
C2113       C  0.21384619  0.09246418  0.76851552    -0.10290
C2114       C  0.21028717  0.11169089  0.75738388     0.05900
C2115       C  0.19016089  0.11474820  0.74698661    -0.04060
C2116       C  0.17545889  0.09767384  0.74557651    -0.08510
C2117       C  0.18036211  0.07759379  0.75453061     0.05020
C2118       C  0.19920650  0.07553722  0.76721171    -0.03530
Br2119     Br  0.20653124  0.05005065  0.78294292    -0.03230
H2120       H  0.22876200  0.08997373  0.77728676     0.08930
H2121       H  0.16068413  0.09979515  0.73648561     0.06950
Br2122     Br  0.18167742  0.14158159  0.73431638    -0.03660
C2123       C  0.34520565  0.14164526  0.72892732    -0.10290
C2124       C  0.33845749  0.14427854  0.75039648     0.05900
C2125       C  0.35096283  0.13462909  0.76654962    -0.04060
C2126       C  0.36549581  0.11810605  0.76113935    -0.08510
C2127       C  0.36982225  0.11313830  0.73946356     0.05020
C2128       C  0.36181057  0.12712922  0.72365878    -0.03530
Br2129     Br  0.37269084  0.12639064  0.69492746    -0.03230
H2130       H  0.33662781  0.14980141  0.71614007     0.08930
H2131       H  0.37252398  0.10842463  0.77379637     0.06950
Br2132     Br  0.34821040  0.14339980  0.79585110    -0.03660
C2133       C  0.06111301  0.05236966  0.77697039    -0.10290
C2134       C  0.08187181  0.05977961  0.77171754     0.05900
C2135       C  0.08559384  0.08200494  0.77056019    -0.04060
C2136       C  0.06816870  0.09607968  0.77048210    -0.08510
C2137       C  0.04685518  0.08837238  0.77161733     0.05020
C2138       C  0.04355470  0.06668361  0.77751641    -0.03530
Br2139     Br  0.01585086  0.05551142  0.78571206    -0.03230
H2140       H  0.05825668  0.03531897  0.77901422     0.08930
H2141       H  0.07131018  0.11298117  0.76770991     0.06950
Br2142     Br  0.11402605  0.09388608  0.76746010    -0.03660
C2143       C  0.20192767  0.24302133  0.77899379    -0.10290
C2144       C  0.18131848  0.23531285  0.77374311     0.05900
C2145       C  0.17806809  0.21310464  0.77155361    -0.04060
C2146       C  0.19578087  0.19927457  0.77167726    -0.08510
C2147       C  0.21699031  0.20727896  0.77350068     0.05020
C2148       C  0.21983161  0.22919294  0.77892184    -0.03530
Br2149     Br  0.24754182  0.24185992  0.78411827    -0.03230
H2150       H  0.20442785  0.26012208  0.78119328     0.08930
H2151       H  0.19301966  0.18234572  0.76856152     0.06950
Br2152     Br  0.14990089  0.20114591  0.76674570    -0.03660
C2153       C  0.04924564  0.20632894  0.75957423    -0.10290
C2154       C  0.05472115  0.18593186  0.75182007     0.05900
C2155       C  0.07574501  0.18248978  0.74355840    -0.04060
C2156       C  0.09008514  0.19986611  0.74160042    -0.08510
C2157       C  0.08378432  0.22073100  0.74768952     0.05020
C2158       C  0.06328274  0.22360116  0.75756581    -0.03530
Br2159     Br  0.05238805  0.25037188  0.76874838    -0.03230
H2160       H  0.03333004  0.20926382  0.76626972     0.08930
H2161       H  0.10589707  0.19716641  0.73460112     0.06950
Br2162     Br  0.08589347  0.15454228  0.73504638    -0.03660
C2163       C  0.07850859  0.37043771  0.76515088    -0.10290
C2164       C  0.07442763  0.37333495  0.74316385     0.05900
C2165       C  0.08992812  0.36642507  0.72810292    -0.04060
C2166       C  0.10742757  0.35387484  0.73483157    -0.08510
C2167       C  0.10948729  0.34802309  0.75649825     0.05020
C2168       C  0.09615846  0.35810269  0.77187726    -0.03530
Br2169     Br  0.09982119  0.35268702  0.80199434    -0.03230
H2170       H  0.06684456  0.37593843  0.77697988     0.08930
H2171       H  0.11757204  0.34626614  0.72277334     0.06950
Br2172     Br  0.08651538  0.37167014  0.69806284    -0.03660
C2173       C  0.90817053  0.32755186  0.74488493    -0.10290
C2174       C  0.91421835  0.30710805  0.73708208     0.05900
C2175       C  0.93515884  0.30457198  0.72820269    -0.04060
C2176       C  0.94920910  0.32195085  0.72746764    -0.08510
C2177       C  0.94394853  0.34192293  0.73668363     0.05020
C2178       C  0.92282070  0.34488797  0.74487335    -0.03530
Br2179     Br  0.91357449  0.37122734  0.75811462    -0.03230
H2180       H  0.89225551  0.32987202  0.75178522     0.08930
H2181       H  0.96520753  0.31925107  0.72085944     0.06950
Br2182     Br  0.94759378  0.27752537  0.71926145    -0.03660
C2183       C  0.89583845  0.17162582  0.75866958    -0.10290
C2184       C  0.89186804  0.17899544  0.73761984     0.05900
C2185       C  0.90373800  0.16982610  0.72058206    -0.04060
C2186       C  0.92139373  0.15646959  0.72501609    -0.08510
C2187       C  0.92740937  0.15194233  0.74631765     0.05020
C2188       C  0.91354444  0.15825754  0.76313027    -0.03530
Br2189     Br  0.92058961  0.15274518  0.79265731    -0.03230
H2190       H  0.88701309  0.17866243  0.77203088     0.08930
H2191       H  0.93194094  0.15167763  0.71190528     0.06950
Br2192     Br  0.89960456  0.17868479  0.69145406    -0.03660
C2193       C  0.33733599  0.94855357  0.73184696    -0.10290
C2194       C  0.31773123  0.95198317  0.72113515     0.05900
C2195       C  0.31573121  0.97010886  0.70756286    -0.04060
C2196       C  0.33187977  0.98564296  0.70724690    -0.08510
C2197       C  0.35009184  0.98381939  0.72044920     0.05020
C2198       C  0.35357422  0.96423392  0.73155691    -0.03530
Br2199     Br  0.37955760  0.95802113  0.74729934    -0.03230
H2200       H  0.33945817  0.93438833  0.74171788     0.08930
H2201       H  0.32919171  0.00009125  0.69792576     0.06950
Br2202     Br  0.29099793  0.97573813  0.68981577    -0.03660
C2203       C  0.18354858  0.92252010  0.75000638    -0.10290
C2204       C  0.18782761  0.92266885  0.72786040     0.05900
C2205       C  0.17401045  0.93408212  0.71405400    -0.04060
C2206       C  0.15776053  0.94718076  0.72274971    -0.08510
C2207       C  0.15570378  0.94955686  0.74514382     0.05020
C2208       C  0.16782672  0.93613752  0.75873556    -0.03530
Br2209     Br  0.16583590  0.93845700  0.78941761    -0.03230
H2210       H  0.19431805  0.91403795  0.76079590     0.08930
H2211       H  0.14880228  0.95769302  0.71211112     0.06950
Br2212     Br  0.17901283  0.93467584  0.68358314    -0.03660
C2213       C  0.48414071  0.98923881  0.71453382    -0.10290
C2214       C  0.47891448  0.96781630  0.71946144     0.05900
C2215       C  0.45690196  0.96220372  0.72016818    -0.04060
C2216       C  0.44086524  0.97797791  0.71922496    -0.08510
C2217       C  0.44612012  0.99986123  0.71787849     0.05020
C2218       C  0.46803474  0.00538011  0.71426300    -0.03530
Br2219     Br  0.47740219  0.03468996  0.71221422    -0.03230
H2220       H  0.50095148  0.99385390  0.71325313     0.08930
H2221       H  0.42415286  0.97315552  0.72114572     0.06950
Br2222     Br  0.44769910  0.93326162  0.72395247    -0.03660
C2223       C  0.92578723  0.45462333  0.71060215    -0.10290
C2224       C  0.93438463  0.47551362  0.70925048     0.05900
C2225       C  0.95641487  0.47781641  0.70382334    -0.04060
C2226       C  0.97003105  0.45976862  0.70446135    -0.08510
C2227       C  0.96176684  0.43954297  0.71001225     0.05020
C2228       C  0.93930524  0.43672416  0.71101894    -0.03530
Br2229     Br  0.92655148  0.40891768  0.71464907    -0.03230
H2230       H  0.90865656  0.45229962  0.71339907     0.08930
H2231       H  0.98730160  0.46192361  0.70266611     0.06950
Br2232     Br  0.96921996  0.50501587  0.69737522    -0.03660
C2233       C  0.32860587  0.51689550  0.29372996    -0.10290
C2234       C  0.34674379  0.53020424  0.29506178     0.05900
C2235       C  0.34901689  0.54416466  0.31289409    -0.04060
C2236       C  0.33232144  0.54552169  0.32816875    -0.08510
C2237       C  0.31337222  0.53343597  0.32557265     0.05020
C2238       C  0.31181700  0.51870340  0.30842303    -0.03530
Br2239     Br  0.28661177  0.50166214  0.30301669    -0.03230
H2240       H  0.32684256  0.50594085  0.28026060     0.08930
H2241       H  0.33363661  0.55681521  0.34140811     0.06950
Br2242     Br  0.37294077  0.56351757  0.31588713    -0.03660
C2243       C  0.30727855  0.47433781  0.24599110    -0.10290
C2244       C  0.31256894  0.45236208  0.24434057     0.05900
C2245       C  0.33070005  0.44684932  0.23157897    -0.04060
C2246       C  0.34553931  0.46289022  0.22573464    -0.08510
C2247       C  0.34045102  0.48462394  0.22886399     0.05020
C2248       C  0.32001973  0.49009043  0.23702669    -0.03530
Br2249     Br  0.30777499  0.51844486  0.23681589    -0.03230
H2250       H  0.29250931  0.47969851  0.25367593     0.08930
H2251       H  0.36056555  0.45852068  0.21789163     0.06950
Br2252     Br  0.33345417  0.42011914  0.21694688    -0.03660
C2253       C  0.23642515  0.46561879  0.34217003    -0.10290
C2254       C  0.25632451  0.47417503  0.34859784     0.05900
C2255       C  0.27545043  0.46326844  0.34313059    -0.04060
C2256       C  0.27473125  0.44685490  0.32777257    -0.08510
C2257       C  0.25496117  0.44070078  0.31854144     0.05020
C2258       C  0.23568226  0.44820923  0.32791227    -0.03530
Br2259     Br  0.20851989  0.43446430  0.32270668    -0.03230
H2260       H  0.22154912  0.47310548  0.34736744     0.08930
H2261       H  0.28981288  0.44053277  0.32152634     0.06950
Br2262     Br  0.30312651  0.47247300  0.35352209    -0.03660
C2263       C  0.45180580  0.54918690  0.31854794    -0.10290
C2264       C  0.47143771  0.55987642  0.31515357     0.05900
C2265       C  0.47405797  0.57147515  0.29575745    -0.04060
C2266       C  0.45777644  0.57059869  0.27981035    -0.08510
C2267       C  0.43932579  0.55764516  0.28262167     0.05020
C2268       C  0.43655893  0.54707166  0.30249287    -0.03530
Br2269     Br  0.41400254  0.52701362  0.30898834    -0.03230
H2270       H  0.44884758  0.54044119  0.33330180     0.08930
H2271       H  0.46025135  0.57881310  0.26466879     0.06950
Br2272     Br  0.49929183  0.58833741  0.28998182    -0.03660
C2273       C  0.44288569  0.55908942  0.44554803    -0.10290
C2274       C  0.42504904  0.54613650  0.44031167     0.05900
C2275       C  0.42389213  0.53669421  0.41981236    -0.04060
C2276       C  0.44161058  0.53833670  0.40591866    -0.08510
C2277       C  0.46062597  0.54923169  0.41218068     0.05020
C2278       C  0.46059852  0.56078814  0.43179881    -0.03530
Br2279     Br  0.48463699  0.57739462  0.44226979    -0.03230
H2280       H  0.44367994  0.56685452  0.46118119     0.08930
H2281       H  0.44096025  0.52988040  0.39065528     0.06950
Br2282     Br  0.39985009  0.51932184  0.41103442    -0.03660
C2283       C  0.29122606  0.57453852  0.44365936    -0.10290
C2284       C  0.29802612  0.57361265  0.42203809     0.05900
C2285       C  0.32047270  0.57515722  0.41773272    -0.04060
C2286       C  0.33540026  0.57471448  0.43463672    -0.08510
C2287       C  0.32862532  0.57301363  0.45606760     0.05020
C2288       C  0.30633954  0.57415026  0.46059703    -0.03530
Br2289     Br  0.29583129  0.57210852  0.48951454    -0.03230
H2290       H  0.27418659  0.57336298  0.44747564     0.08930
H2291       H  0.35249324  0.57383277  0.43089725     0.06950
Br2292     Br  0.33218326  0.57592744  0.38911774    -0.03660
C2293       C  0.53116647  0.48919104  0.27403716    -0.10290
C2294       C  0.53289772  0.46760032  0.28021479     0.05900
C2295       C  0.53842994  0.46262947  0.30158186    -0.04060
C2296       C  0.54022327  0.47913917  0.31684889    -0.08510
C2297       C  0.53654520  0.50060958  0.31104918     0.05020
C2298       C  0.53265564  0.50566135  0.28933651    -0.03530
Br2299     Br  0.52586117  0.53434605  0.28042097    -0.03230
H2300       H  0.52665139  0.49315822  0.25767209     0.08930
H2301       H  0.54293276  0.47507684  0.33358004     0.06950
Br2302     Br  0.54264798  0.43349623  0.31069824    -0.03660
C2303       C  0.48205373  0.49409536  0.21604355    -0.10290
C2304       C  0.47664768  0.47291764  0.21060854     0.05900
C2305       C  0.45604568  0.46836347  0.20237949    -0.04060
C2306       C  0.44032636  0.48445123  0.20207906    -0.08510
C2307       C  0.44480948  0.50506331  0.21027098     0.05020
C2308       C  0.46630246  0.51024962  0.21598371    -0.03530
Br2309     Br  0.47442953  0.53769549  0.22769747    -0.03230
H2310       H  0.49786643  0.49756313  0.22268867     0.08930
H2311       H  0.42397906  0.48024717  0.19746214     0.06950
Br2312     Br  0.44796393  0.43964190  0.19434360    -0.03660
C2313       C  0.42989759  0.34384764  0.21662197    -0.10290
C2314       C  0.41403598  0.34339277  0.23267226     0.05900
C2315       C  0.41179347  0.36176214  0.24623327    -0.04060
C2316       C  0.42722346  0.37834529  0.24543394    -0.08510
C2317       C  0.44479364  0.37707491  0.23127156     0.05020
C2318       C  0.44518918  0.36021502  0.21590117    -0.03530
Br2319     Br  0.46729759  0.35703603  0.19453217    -0.03230
H2320       H  0.43156483  0.33051524  0.20546370     0.08930
H2321       H  0.42648121  0.39127345  0.25715097     0.06950
Br2322     Br  0.38906827  0.36504515  0.26706373    -0.03660
C2323       C  0.33167880  0.34341878  0.22035704    -0.10290
C2324       C  0.32394997  0.32245420  0.21798177     0.05900
C2325       C  0.30186411  0.31959330  0.21295458    -0.04060
C2326       C  0.28786252  0.33762100  0.21311867    -0.08510
C2327       C  0.29527319  0.35768074  0.22079956     0.05020
C2328       C  0.31749716  0.35968082  0.22571896    -0.03530
Br2329     Br  0.32900893  0.37839219  0.24751571    -0.03230
H2330       H  0.34867725  0.34605706  0.22374130     0.08930
H2331       H  0.27075470  0.33524707  0.21032746     0.06950
Br2332     Br  0.28968027  0.29161601  0.20870696    -0.03660
C2333       C  0.52985474  0.46271635  0.44109360    -0.10290
C2334       C  0.51068636  0.45067055  0.44197138     0.05900
C2335       C  0.49564592  0.45271556  0.42498946    -0.04060
C2336       C  0.49917238  0.46803903  0.40882227    -0.08510
C2337       C  0.51720370  0.48173068  0.40955913     0.05020
C2338       C  0.53297803  0.47845683  0.42550144    -0.03530
Br2339     Br  0.55858192  0.49573845  0.42758263    -0.03230
H2340       H  0.54212241  0.46061542  0.45328855     0.08930
H2341       H  0.48686232  0.47048676  0.39668032     0.06950
Br2342     Br  0.46897740  0.43701522  0.42410025    -0.03660
C2343       C  0.42257882  0.47063130  0.51994548    -0.10290
C2344       C  0.41304838  0.47648087  0.50031823     0.05900
C2345       C  0.41536901  0.46240067  0.48238455    -0.04060
C2346       C  0.42948372  0.44484741  0.48367847    -0.08510
C2347       C  0.44126450  0.44105232  0.50246073     0.05020
C2348       C  0.43654893  0.45306442  0.52108560    -0.03530
Br2349     Br  0.45085480  0.44739932  0.54780222    -0.03230
H2350       H  0.42041509  0.48061358  0.53411781     0.08930
H2351       H  0.43308503  0.43566692  0.46924666     0.06950
Br2352     Br  0.40241219  0.46729631  0.45471780    -0.03660
C2353       C  0.52300509  0.31808609  0.44805950    -0.10290
C2354       C  0.53599279  0.32128081  0.43005585     0.05900
C2355       C  0.54871479  0.33990309  0.42851660    -0.04060
C2356       C  0.54701105  0.35583438  0.44452866    -0.08510
C2357       C  0.53242123  0.35326003  0.46167837     0.05020
C2358       C  0.52059636  0.33405171  0.46340339    -0.03530
Br2359     Br  0.49732591  0.33019496  0.48318439    -0.03230
H2360       H  0.51241184  0.30426066  0.44870232     0.08930
H2361       H  0.55580850  0.37077319  0.44277827     0.06950
Br2362     Br  0.56651100  0.34494970  0.40381167    -0.03660
C2363       C  0.52972753  0.35956363  0.29715937    -0.10290
C2364       C  0.51172072  0.37335133  0.29618998     0.05900
C2365       C  0.49710830  0.37340260  0.31380368    -0.04060
C2366       C  0.49949900  0.35827761  0.33036558    -0.08510
C2367       C  0.51610914  0.34293631  0.32975228     0.05020
C2368       C  0.53186692  0.34432540  0.31345599    -0.03530
Br2369     Br  0.55634352  0.32534671  0.31218234    -0.03230
H2370       H  0.54188591  0.35995954  0.28466295     0.08930
H2371       H  0.48736579  0.35748192  0.34292382     0.06950
Br2372     Br  0.47267329  0.39234415  0.31589695    -0.03660
C2373       C  0.43802102  0.29220482  0.33324175    -0.10290
C2374       C  0.45591325  0.27869046  0.32918306     0.05900
C2375       C  0.45548849  0.26507689  0.31088253    -0.04060
C2376       C  0.43868049  0.26695807  0.29624245    -0.08510
C2377       C  0.42189910  0.28175470  0.29939803     0.05020
C2378       C  0.42105387  0.29383223  0.31849227    -0.03530
Br2379     Br  0.39873734  0.31458138  0.32393148    -0.03230
H2380       H  0.43775801  0.30253175  0.34731814     0.08930
H2381       H  0.43918075  0.25731183  0.28166920     0.06950
Br2382     Br  0.47757930  0.24456021  0.30332267    -0.03660
C2383       C  0.21589941  0.33754512  0.31376522    -0.10290
C2384       C  0.22944045  0.31962104  0.31102604     0.05900
C2385       C  0.24165281  0.31777645  0.29191383    -0.04060
C2386       C  0.24120442  0.33399164  0.27662925    -0.08510
C2387       C  0.22992691  0.35295275  0.28062113     0.05020
C2388       C  0.21632871  0.35438296  0.29873941    -0.03530
Br2389     Br  0.19956787  0.37967279  0.30412775    -0.03230
H2390       H  0.20670352  0.33943437  0.32849778     0.08930
H2391       H  0.25207361  0.33299653  0.26294302     0.06950
Br2392     Br  0.26265897  0.29581033  0.28738706    -0.03660
C2393       C  0.31535631  0.25885613  0.32357042    -0.10290
C2394       C  0.29356560  0.25676886  0.31789485     0.05900
C2395       C  0.28851928  0.24892259  0.29706720    -0.04060
C2396       C  0.30471923  0.24865612  0.28116049    -0.08510
C2397       C  0.32587567  0.25500015  0.28625819     0.05020
C2398       C  0.33142623  0.25803886  0.30803971    -0.03530
Br2399     Br  0.36029748  0.26367608  0.31754553    -0.03230
H2400       H  0.31984529  0.26315281  0.33989395     0.08930
H2401       H  0.30037633  0.24535300  0.26458768     0.06950
Br2402     Br  0.25999875  0.23989994  0.28892004    -0.03660
C2403       C  0.23784614  0.35119989  0.44973827    -0.10290
C2404       C  0.24353766  0.37213517  0.44412725     0.05900
C2405       C  0.24830017  0.37670804  0.42241011    -0.04060
C2406       C  0.24965204  0.35994007  0.40732169    -0.08510
C2407       C  0.24596095  0.33863668  0.41358354     0.05020
C2408       C  0.23881517  0.33458041  0.43493680    -0.03530
Br2409     Br  0.23058648  0.30698465  0.44631042    -0.03230
H2410       H  0.23358832  0.34736984  0.46621432     0.08930
H2411       H  0.25432443  0.36349678  0.39090987     0.06950
Br2412     Br  0.25170718  0.40526867  0.41206940    -0.03660
C2413       C  0.30956133  0.46946212  0.52503774    -0.10290
C2414       C  0.28817950  0.47559231  0.52076888     0.05900
C2415       C  0.28375889  0.49747282  0.51681297    -0.04060
C2416       C  0.30073754  0.51248983  0.51580277    -0.08510
C2417       C  0.32234492  0.50593837  0.51812633     0.05020
C2418       C  0.32653150  0.48434954  0.52376840    -0.03530
Br2419     Br  0.35538679  0.47408360  0.52860902    -0.03230
H2420       H  0.31329744  0.45266284  0.52775537     0.08930
H2421       H  0.29717146  0.52888951  0.51128965     0.06950
Br2422     Br  0.25511853  0.50698460  0.50996377    -0.03660
C2423       C  0.22065923  0.49220913  0.46104732    -0.10290
C2424       C  0.23254935  0.47313882  0.45706396     0.05900
C2425       C  0.24462216  0.47206551  0.43759009    -0.04060
C2426       C  0.24301188  0.48806154  0.42242258    -0.08510
C2427       C  0.23321627  0.50766563  0.42698215     0.05020
C2428       C  0.22153133  0.50974456  0.44641850    -0.03530
Br2429     Br  0.20827079  0.53645912  0.45416990    -0.03230
H2430       H  0.21179744  0.49397601  0.47598347     0.08930
H2431       H  0.25231845  0.48616863  0.40783667     0.06950
Br2432     Br  0.26851217  0.45318359  0.43152316    -0.03660
C2433       C  0.34351405  0.27421776  0.43269605    -0.10290
C2434       C  0.34347192  0.29351055  0.44454258     0.05900
C2435       C  0.32868622  0.30978504  0.43924243    -0.04060
C2436       C  0.31374222  0.30638668  0.42286226    -0.08510
C2437       C  0.31296988  0.28675440  0.41170690     0.05020
C2438       C  0.32841272  0.27082554  0.41618157    -0.03530
Br2439     Br  0.32980968  0.24485027  0.39965832    -0.03230
H2440       H  0.35466217  0.26147467  0.43685794     0.08930
H2441       H  0.30194762  0.31883135  0.41950975     0.06950
Br2442     Br  0.32752753  0.33656276  0.45462204    -0.03660
C2443       C  0.34703478  0.36897510  0.49832843    -0.10290
C2444       C  0.34341059  0.35117243  0.51186095     0.05900
C2445       C  0.32454537  0.35089076  0.52478982    -0.04060
C2446       C  0.30889215  0.36651246  0.52184738    -0.08510
C2447       C  0.31112969  0.38226727  0.50603713     0.05020
C2448       C  0.33092213  0.38447336  0.49520027    -0.03530
Br2449     Br  0.33566005  0.40633812  0.47403606    -0.03230
H2450       H  0.36157891  0.36984240  0.48865945     0.08930
H2451       H  0.29388322  0.36520674  0.53077141     0.06950
Br2452     Br  0.31665359  0.32848722  0.54456222    -0.03660
C2453       C  0.45295069  0.36547944  0.53312075    -0.10290
C2454       C  0.47408857  0.35756849  0.53210878     0.05900
C2455       C  0.47785873  0.33554774  0.53515274    -0.04060
C2456       C  0.46041018  0.32128639  0.53391615    -0.08510
C2457       C  0.43937001  0.32917296  0.53053775     0.05020
C2458       C  0.43550449  0.35144306  0.53266160    -0.03530
Br2459     Br  0.40701888  0.36383433  0.53294478    -0.03230
H2460       H  0.44999260  0.38260948  0.53176903     0.08930
H2461       H  0.46358066  0.30416175  0.53349439     0.06950
Br2462     Br  0.50656228  0.32436604  0.53830410    -0.03660
C2463       C  0.45940705  0.26344940  0.46684162    -0.10290
C2464       C  0.43761025  0.26657687  0.46155433     0.05900
C2465       C  0.43177751  0.26740104  0.43967908    -0.04060
C2466       C  0.44765130  0.26750484  0.42371067    -0.08510
C2467       C  0.46970378  0.26668793  0.42893700     0.05020
C2468       C  0.47545800  0.26318801  0.45076284    -0.03530
Br2469     Br  0.50476157  0.25966187  0.46017985    -0.03230
H2470       H  0.46414648  0.26277509  0.48361117     0.08930
H2471       H  0.44267336  0.26934250  0.40709911     0.06950
Br2472     Br  0.40232102  0.26964501  0.43065773    -0.03660
C2473       C  0.26293216  0.10368056  0.65567472    -0.10290
C2474       C  0.27350979  0.08408303  0.65993303     0.05900
C2475       C  0.28427460  0.08153341  0.67983480    -0.04060
C2476       C  0.28347429  0.09789785  0.69501214    -0.08510
C2477       C  0.27127827  0.11659346  0.69163900     0.05020
C2478       C  0.26168238  0.11992990  0.67135242    -0.03530
Br2479     Br  0.24531413  0.14525158  0.66462120    -0.03230
H2480       H  0.25476229  0.10601094  0.64044648     0.08930
H2481       H  0.29135255  0.09524133  0.71035773     0.06950
Br2482     Br  0.29795170  0.05540868  0.68941431    -0.03660
C2483       C  0.33808079  0.05363393  0.63956542    -0.10290
C2484       C  0.33905225  0.03214621  0.63309054     0.05900
C2485       C  0.35624829  0.01936942  0.64066177    -0.04060
C2486       C  0.37124338  0.02783557  0.65562505    -0.08510
C2487       C  0.36877123  0.04878402  0.66400428     0.05020
C2488       C  0.35212510  0.06177423  0.65519430    -0.03530
Br2489     Br  0.34501643  0.08975078  0.66591773    -0.03230
H2490       H  0.32471443  0.06355548  0.63424018     0.08930
H2491       H  0.38334821  0.01726118  0.66241139     0.06950
Br2492     Br  0.35863289  0.98986502  0.63217148    -0.03660
C2493       C  0.24299201  0.93729996  0.64495761    -0.10290
C2494       C  0.25911300  0.92794079  0.65760783     0.05900
C2495       C  0.28096687  0.93106316  0.65191589    -0.04060
C2496       C  0.28644859  0.94605026  0.63603764    -0.08510
C2497       C  0.27030196  0.95814338  0.62595488     0.05020
C2498       C  0.24847383  0.95229075  0.62910847    -0.03530
Br2499     Br  0.22551290  0.96791148  0.61546485    -0.03230
H2500       H  0.22615449  0.93518387  0.64924937     0.08930
H2501       H  0.30325420  0.95048746  0.63401155     0.06950
Br2502     Br  0.30385783  0.91811102  0.66820157    -0.03660
C2503       C  0.21372215  0.00480958  0.67022044    -0.10290
C2504       C  0.21035305  0.02014181  0.65408031     0.05900
C2505       C  0.19059981  0.03133737  0.65354299    -0.04060
C2506       C  0.17575024  0.02869926  0.67040078    -0.08510
C2507       C  0.18029683  0.01514162  0.68801049     0.05020
C2508       C  0.19916652  0.00230643  0.68714815    -0.03530
Br2509     Br  0.20803826  0.98292966  0.70943263    -0.03230
H2510       H  0.22868289  0.99571660  0.67051432     0.08930
H2511       H  0.16120484  0.03839688  0.67036884     0.06950
Br2512     Br  0.18412972  0.05219251  0.63179935    -0.03660
C2513       C  0.28504347  0.11463121  0.55010629    -0.10290
C2514       C  0.28510491  0.10842952  0.52843675     0.05900
C2515       C  0.28889189  0.08682338  0.52297386    -0.04060
C2516       C  0.29047950  0.07139604  0.53925333    -0.08510
C2517       C  0.28781550  0.07722640  0.56098566     0.05020
C2518       C  0.28659895  0.09930015  0.56639624    -0.03530
Br2519     Br  0.28594136  0.10952275  0.59562778    -0.03230
H2520       H  0.28230873  0.13132184  0.55438731     0.08930
H2521       H  0.29185191  0.05463193  0.53476259     0.06950
Br2522     Br  0.28916655  0.07740337  0.49355789    -0.03660
C2523       C  0.24183924  0.18277510  0.41111808    -0.10290
C2524       C  0.26296427  0.18295877  0.41927954     0.05900
C2525       C  0.27917797  0.19397381  0.40810996    -0.04060
C2526       C  0.27359749  0.20714750  0.39085224    -0.08510
C2527       C  0.25181735  0.21004812  0.38523944     0.05020
C2528       C  0.23622332  0.19624033  0.39399489    -0.03530
Br2529     Br  0.20660978  0.19811744  0.38539133    -0.03230
H2530       H  0.22927180  0.17403821  0.41951071     0.08930
H2531       H  0.28579131  0.21773422  0.38421819     0.06950
Br2532     Br  0.30835847  0.19417441  0.41823822    -0.03660
C2533       C  0.32266705  0.20519314  0.51477720    -0.10290
C2534       C  0.32421043  0.19311779  0.49579826     0.05900
C2535       C  0.34355769  0.19402946  0.48381759    -0.04060
C2536       C  0.35955513  0.20910009  0.48968019    -0.08510
C2537       C  0.35663738  0.22253297  0.50775453     0.05020
C2538       C  0.33850456  0.21947740  0.52092749    -0.03530
Br2539     Br  0.33151088  0.23755934  0.54496813    -0.03230
H2540       H  0.30776837  0.20547414  0.52378293     0.08930
H2541       H  0.37325066  0.21163087  0.47912276     0.06950
Br2542     Br  0.34780688  0.17729290  0.45826215    -0.03660
C2543       C  0.17939766  0.19932530  0.50626766    -0.10290
C2544       C  0.19287402  0.19888778  0.48797491     0.05900
C2545       C  0.18797897  0.21280622  0.47065949    -0.04060
C2546       C  0.17164393  0.22814439  0.47287396    -0.08510
C2547       C  0.15970997  0.22986538  0.49192050     0.05020
C2548       C  0.16296504  0.21474933  0.50835975    -0.03530
Br2549     Br  0.14730600  0.21637394  0.53496051    -0.03230
H2550       H  0.18270678  0.18882358  0.51973797     0.08930
H2551       H  0.16908761  0.23969093  0.46008930     0.06950
Br2552     Br  0.20349371  0.21283425  0.44390269    -0.03660
C2553       C  0.15069237  0.27683298  0.41530527    -0.10290
C2554       C  0.15124566  0.29682144  0.42603633     0.05900
C2555       C  0.16757780  0.31152956  0.42048584    -0.04060
C2556       C  0.18384550  0.30554752  0.40601741    -0.08510
C2557       C  0.18455130  0.28481222  0.39698680     0.05020
C2558       C  0.16712539  0.27081446  0.40076756    -0.03530
Br2559     Br  0.16672541  0.24237795  0.38897345    -0.03230
H2560       H  0.13868641  0.26502984  0.41988213     0.08930
H2561       H  0.19721503  0.31648928  0.40340646     0.06950
Br2562     Br  0.17097018  0.33832697  0.43540952    -0.03660
C2563       C  0.16791651  0.39418741  0.48967148    -0.10290
C2564       C  0.17945785  0.39221437  0.50913575     0.05900
C2565       C  0.17279542  0.37598645  0.52361642    -0.04060
C2566       C  0.15684290  0.36113607  0.51783877    -0.08510
C2567       C  0.14708109  0.36157643  0.49755355     0.05020
C2568       C  0.15185664  0.37899818  0.48385180    -0.03530
Br2569     Br  0.13781104  0.38167099  0.45657199    -0.03230
H2570       H  0.17266132  0.40632533  0.47815019     0.08930
H2571       H  0.15346053  0.34789129  0.52861479     0.06950
Br2572     Br  0.18644627  0.37150947  0.55081807    -0.03660
C2573       C  0.07254898  0.27656242  0.65470198    -0.10290
C2574       C  0.05257413  0.28613401  0.65994352     0.05900
C2575       C  0.05119080  0.29874755  0.67891251    -0.04060
C2576       C  0.06892065  0.30027044  0.69255404    -0.08510
C2577       C  0.08789137  0.28844565  0.68873995     0.05020
C2578       C  0.09004670  0.27736168  0.66898977    -0.03530
Br2579     Br  0.11595870  0.26240555  0.66082839    -0.03230
H2580       H  0.07421773  0.26726660  0.64001320     0.08930
H2581       H  0.06688858  0.30917276  0.70744910     0.06950
Br2582     Br  0.02516541  0.31194800  0.68961697    -0.03660
C2583       C  0.91289040  0.24820241  0.64016938    -0.10290
C2584       C  0.92357290  0.26784082  0.64386883     0.05900
C2585       C  0.91670036  0.28069076  0.66131521    -0.04060
C2586       C  0.90059308  0.27349982  0.67524230    -0.08510
C2587       C  0.89166970  0.25298205  0.67301274     0.05020
C2588       C  0.89696007  0.24076687  0.65460231    -0.03530
Br2589     Br  0.88352931  0.21361912  0.64921424    -0.03230
H2590       H  0.91811979  0.23787592  0.62708276     0.08930
H2591       H  0.89669640  0.28314414  0.68926289     0.06950
Br2592     Br  0.93146786  0.30631118  0.66961642    -0.03660
C2593       C  0.00898385  0.34451361  0.64015348    -0.10290
C2594       C  0.98670703  0.34089330  0.63851844     0.05900
C2595       C  0.97245734  0.35351358  0.65070501    -0.04060
C2596       C  0.98053788  0.36578475  0.66771622    -0.08510
C2597       C  0.00283613  0.36634015  0.67179540     0.05020
C2598       C  0.01715071  0.35742777  0.65665700    -0.03530
Br2599     Br  0.04773540  0.35947823  0.65966281    -0.03230
H2600       H  0.02013414  0.33513152  0.63044724     0.08930
H2601       H  0.96934998  0.37352043  0.67873394     0.06950
Br2602     Br  0.94212822  0.35380837  0.64482695    -0.03660
C2603       C  0.02025619  0.19432901  0.68781787    -0.10290
C2604       C  0.00408185  0.17867829  0.68704859     0.05900
C2605       C  0.98917244  0.17869966  0.66996453    -0.04060
C2606       C  0.98975730  0.19541943  0.65475016    -0.08510
C2607       C  0.00506771  0.21203374  0.65661939     0.05020
C2608       C  0.02085234  0.21087796  0.67287870    -0.03530
Br2609     Br  0.04301019  0.23211618  0.67632083    -0.03230
H2610       H  0.03189284  0.19430247  0.70086833     0.08930
H2611       H  0.97743498  0.19621930  0.64240641     0.06950
Br2612     Br  0.96673462  0.15755488  0.66821848    -0.03660
C2613       C  0.02719299  0.30981165  0.54517281    -0.10290
C2614       C  0.03309129  0.30567499  0.56662954     0.05900
C2615       C  0.05471218  0.30977909  0.57266395    -0.04060
C2616       C  0.07038414  0.31333496  0.55687877    -0.08510
C2617       C  0.06515754  0.31281020  0.53486644     0.05020
C2618       C  0.04306944  0.31264265  0.52913163    -0.03530
Br2619     Br  0.03376374  0.31311174  0.49972237    -0.03230
H2620       H  0.01041227  0.30897481  0.54049347     0.08930
H2621       H  0.08713306  0.31459470  0.56179965     0.06950
Br2622     Br  0.06416222  0.30995903  0.60214719    -0.03660
C2623       C  0.06167077  0.21594683  0.46202958    -0.10290
C2624       C  0.03960036  0.21979864  0.46509143     0.05900
C2625       C  0.03196141  0.24113087  0.46522634    -0.04060
C2626       C  0.04675488  0.25822332  0.46543854    -0.08510
C2627       C  0.06905585  0.25420844  0.46473899     0.05020
C2628       C  0.07632759  0.23299590  0.46141154    -0.03530
Br2629     Br  0.10641015  0.22644457  0.45801874    -0.03230
H2630       H  0.06766838  0.19957644  0.46140682     0.08930
H2631       H  0.04092028  0.27445729  0.46794283     0.06950
Br2632     Br  0.00174969  0.24756465  0.46688712    -0.03660
C2633       C  0.98333640  0.22586793  0.52256263    -0.10290
C2634       C  0.97645834  0.20489222  0.52618473     0.05900
C2635       C  0.96684929  0.19965929  0.54607264    -0.04060
C2636       C  0.96645941  0.21491627  0.56268264    -0.08510
C2637       C  0.97577247  0.23513163  0.55955142     0.05020
C2638       C  0.98348994  0.24077050  0.53910924    -0.03530
Br2639     Br  0.99731864  0.26737752  0.53333995    -0.03230
H2640       H  0.99107666  0.22999667  0.50754756     0.08930
H2641       H  0.96031036  0.21051345  0.57839467     0.06950
Br2642     Br  0.95439272  0.17223560  0.55156061    -0.03660
C2643       C  0.99096885  0.12144575  0.38013987    -0.10290
C2644       C  0.01165405  0.11591297  0.37265713     0.05900
C2645       C  0.02927419  0.12836766  0.37945046    -0.04060
C2646       C  0.02714075  0.14136516  0.39781484    -0.08510
C2647       C  0.00697853  0.14354787  0.40805902     0.05020
C2648       C  0.98846428  0.13552897  0.39759493    -0.03530
Br2649     Br  0.95989108  0.14006166  0.40874193    -0.03230
H2650       H  0.97706037  0.11254677  0.37442646     0.08930
H2651       H  0.04144771  0.14836869  0.40501335     0.06950
Br2652     Br  0.05683870  0.12572624  0.36562053    -0.03660
C2653       C  0.23296989  0.08618249  0.45815048    -0.10290
C2654       C  0.22497664  0.10726762  0.45768659     0.05900
C2655       C  0.20323995  0.11088333  0.45199330    -0.04060
C2656       C  0.18903141  0.09354983  0.45123459    -0.08510
C2657       C  0.19641834  0.07282791  0.45586079     0.05020
C2658       C  0.21868189  0.06888048  0.45737798    -0.03530
Br2659     Br  0.22971221  0.04050285  0.46186999    -0.03230
H2660       H  0.24978532  0.08317170  0.46189882     0.08930
H2661       H  0.17187417  0.09659669  0.44972112     0.06950
Br2662     Br  0.19171215  0.13927641  0.44785109    -0.03660
C2663       C  0.21845422  0.01192096  0.51733804    -0.10290
C2664       C  0.19678996  0.01013218  0.52377769     0.05900
C2665       C  0.19231456  0.00465335  0.54533799    -0.04060
C2666       C  0.20891550  0.00420604  0.56053959    -0.08510
C2667       C  0.23022798  0.00871700  0.55457942     0.05020
C2668       C  0.23517398  0.01134284  0.53260448    -0.03530
Br2669     Br  0.26400052  0.01728529  0.52315409    -0.03230
H2670       H  0.22225174  0.01596366  0.50086972     0.08930
H2671       H  0.20492607  0.00193754  0.57737156     0.06950
Br2672     Br  0.16357958  0.99926009  0.55524453    -0.03660
C2673       C  0.10636271  0.11742994  0.50732021    -0.10290
C2674       C  0.11508542  0.10803630  0.48876846     0.05900
C2675       C  0.10869074  0.11577728  0.46855811    -0.04060
C2676       C  0.09031335  0.12882202  0.46694980    -0.08510
C2677       C  0.07940113  0.13551530  0.48560500     0.05020
C2678       C  0.08869512  0.13133726  0.50589882    -0.03530
Br2679     Br  0.07573360  0.14085606  0.53236586    -0.03230
H2680       H  0.11162988  0.11200641  0.52302139     0.08930
H2681       H  0.08393748  0.13279060  0.45122162     0.06950
Br2682     Br  0.12459744  0.10856241  0.44314444    -0.03660
C2683       C  0.09842580  0.06251754  0.42039058    -0.10290
C2684       C  0.10942281  0.04278319  0.42125699     0.05900
C2685       C  0.10675409  0.02820446  0.40398718    -0.04060
C2686       C  0.09167600  0.03286653  0.38756632    -0.08510
C2687       C  0.07921401  0.05183511  0.38828798     0.05020
C2688       C  0.08335387  0.06695787  0.40457604    -0.03530
Br2689     Br  0.06569114  0.09195994  0.40905178    -0.03230
H2690       H  0.09950850  0.07369689  0.43364829     0.08930
H2691       H  0.08810324  0.02071119  0.37555386     0.06950
Br2692     Br  0.12060324  0.00066531  0.40369748    -0.03660
C2693       C  0.07197184  0.00087533  0.66405894    -0.10290
C2694       C  0.05038518  0.99888907  0.67040422     0.05900
C2695       C  0.04553774  0.99516130  0.69218882    -0.04060
C2696       C  0.06207074  0.99620930  0.70761397    -0.08510
C2697       C  0.08351323  0.00056423  0.70144909     0.05020
C2698       C  0.08855542  0.00126963  0.67925562    -0.03530
Br2699     Br  0.11763568  0.00324774  0.66854750    -0.03230
H2700       H  0.07584909  0.00322259  0.64722316     0.08930
H2701       H  0.05789245  0.99506987  0.72450624     0.06950
Br2702     Br  0.01649831  0.99027227  0.70166949    -0.03660
C2703       C  0.99325794  0.04723695  0.68916077    -0.10290
C2704       C  0.98284280  0.05320311  0.67017733     0.05900
C2705       C  0.97091073  0.07242315  0.66947043    -0.04060
C2706       C  0.97072489  0.08603249  0.68751956    -0.08510
C2707       C  0.98294110  0.08078476  0.70580102     0.05020
C2708       C  0.99393508  0.06106764  0.70662881    -0.03530
Br2709     Br  0.01306508  0.05361420  0.72957829    -0.03230
H2710       H  0.00306861  0.03285182  0.68954963     0.08930
H2711       H  0.96262293  0.10145259  0.68660451     0.06950
Br2712     Br  0.95584383  0.08098952  0.64396984    -0.03660
C2713       C  0.07027521  0.05244133  0.56738522    -0.10290
C2714       C  0.07398279  0.03588470  0.58204881     0.05900
C2715       C  0.09447109  0.02626416  0.58318875    -0.04060
C2716       C  0.11026198  0.03190722  0.56800018    -0.08510
C2717       C  0.10551249  0.04675715  0.55168720     0.05020
C2718       C  0.08563336  0.05769653  0.55207694    -0.03530
Br2719     Br  0.07693007  0.07747463  0.53020529    -0.03230
H2720       H  0.05456285  0.06009470  0.56662961     0.08930
H2721       H  0.12542292  0.02329778  0.56774139     0.06950
Br2722     Br  0.10061120  0.00391575  0.60334736    -0.03660
C2723       C  0.01299674  0.08452232  0.52834680    -0.10290
C2724       C  0.01277409  0.10619654  0.53463235     0.05900
C2725       C  0.01064178  0.11116297  0.55677061    -0.04060
C2726       C  0.00873613  0.09449279  0.57190578    -0.08510
C2727       C  0.00873262  0.07279795  0.56542927     0.05020
C2728       C  0.01120214  0.06798547  0.54329222    -0.03530
Br2729     Br  0.01451407  0.03934289  0.53203511    -0.03230
H2730       H  0.01508086  0.08028512  0.51153398     0.08930
H2731       H  0.00721638  0.09850198  0.58882492     0.06950
Br2732     Br  0.00918841  0.14016609  0.56730160    -0.03660
C2733       C  0.91617039  0.01081276  0.56341795    -0.10290
C2734       C  0.91649006  0.03297431  0.55911453     0.05900
C2735       C  0.93129465  0.04621650  0.57003112    -0.04060
C2736       C  0.94610791  0.03710026  0.58427016    -0.08510
C2737       C  0.94705623  0.01475688  0.58706956     0.05020
C2738       C  0.93165141  0.00158603  0.57699341    -0.03530
Br2739     Br  0.93234170  0.97096079  0.58005348    -0.03230
H2740       H  0.90518640  0.00041209  0.55466357     0.08930
H2741       H  0.95810106  0.04733056  0.59182557     0.06950
Br2742     Br  0.93313471  0.07648814  0.56456092    -0.03660
C2743       C  0.92226822  0.05203934  0.42296256    -0.10290
C2744       C  0.91559459  0.03140182  0.42881900     0.05900
C2745       C  0.92388426  0.01350926  0.41777739    -0.04060
C2746       C  0.93998610  0.01630298  0.40232204    -0.08510
C2747       C  0.94838693  0.03683626  0.39799319     0.05020
C2748       C  0.93843951  0.05494076  0.40756317    -0.03530
Br2749     Br  0.94665565  0.08389569  0.40120694    -0.03230
H2750       H  0.91613484  0.06586024  0.43163535     0.08930
H2751       H  0.94717777  0.00213894  0.39505658     0.06950
Br2752     Br  0.91586762  0.98482835  0.42538352    -0.03660
C2753       C  0.92401259  0.10851735  0.50712829    -0.10290
C2754       C  0.90967705  0.10118433  0.49148269     0.05900
C2755       C  0.91154419  0.10895125  0.47028126    -0.04060
C2756       C  0.92949001  0.12134913  0.46437160    -0.08510
C2757       C  0.94542805  0.12622515  0.47960778     0.05020
C2758       C  0.94198511  0.12058681  0.50128442    -0.03530
Br2759     Br  0.96250604  0.12628948  0.52329700    -0.03230
H2760       H  0.92290136  0.10241948  0.52340430     0.08930
H2761       H  0.93143992  0.12631653  0.44780505     0.06950
Br2762     Br  0.89061296  0.10141194  0.44885305    -0.03660
C2763       C  0.09554846  0.94889700  0.51330633    -0.10290
C2764       C  0.08943599  0.93530093  0.49634023     0.05900
C2765       C  0.09760172  0.93926525  0.47553774    -0.04060
C2766       C  0.10977477  0.95792518  0.47170509    -0.08510
C2767       C  0.11356275  0.97275004  0.48836587     0.05020
C2768       C  0.10702764  0.96769487  0.50941169    -0.03530
Br2769     Br  0.11108866  0.98689967  0.53314334    -0.03230
H2770       H  0.08917901  0.94617294  0.52933399     0.08930
H2771       H  0.11479023  0.96167894  0.45543588     0.06950
Br2772     Br  0.08979948  0.92158766  0.45142674    -0.03660
C2773       C  0.04239451  0.92467141  0.57286437    -0.10290
C2774       C  0.02459764  0.91569032  0.56228760     0.05900
C2775       C  0.00379550  0.91854471  0.57107273    -0.04060
C2776       C  0.00055144  0.93397713  0.58715546    -0.08510
C2777       C  0.01797496  0.94642147  0.59436217     0.05020
C2778       C  0.03916938  0.94020888  0.58882281    -0.03530
Br2779     Br  0.06391404  0.95496913  0.60008728    -0.03230
H2780       H  0.05852806  0.92228837  0.56647825     0.08930
H2781       H  0.98417725  0.93830302  0.59161269     0.06950
Br2782     Br  0.97902342  0.90488995  0.55844959    -0.03660
C2783       C  0.94082844  0.97275385  0.51422847    -0.10290
C2784       C  0.92454942  0.97208581  0.49853393     0.05900
C2785       C  0.92308136  0.95359627  0.48524725    -0.04060
C2786       C  0.94008871  0.93859123  0.48507699    -0.08510
C2787       C  0.95812060  0.94145700  0.49847272     0.05020
C2788       C  0.95746227  0.95777880  0.51432799    -0.03530
Br2789     Br  0.97947237  0.96181863  0.53577424    -0.03230
H2790       H  0.94159499  0.98591094  0.52568759     0.08930
H2791       H  0.93989953  0.92558499  0.47343115     0.06950
Br2792     Br  0.89881741  0.94792276  0.46690688    -0.03660
C2793       C  0.01730648  0.95003470  0.41695761    -0.10290
C2794       C  0.02466919  0.95635534  0.43746823     0.05900
C2795       C  0.03252619  0.97749208  0.44033102    -0.04060
C2796       C  0.03125946  0.99200750  0.42340113    -0.08510
C2797       C  0.02187262  0.98631031  0.40358619     0.05020
C2798       C  0.01595414  0.96473416  0.40000821    -0.03530
Br2799     Br  0.00434661  0.95460146  0.37319784    -0.03230
H2800       H  0.01166455  0.93376283  0.41430280     0.08930
H2801       H  0.03646592  0.00840525  0.42627402     0.06950
Br2802     Br  0.04283400  0.98892951  0.46727856    -0.03660
C2803       C  0.28505057  0.25288030  0.69894907    -0.10290
C2804       C  0.28106809  0.24693647  0.67745616     0.05900
C2805       C  0.28140882  0.22485640  0.67195330    -0.04060
C2806       C  0.28252574  0.20937609  0.68808935    -0.08510
C2807       C  0.28393270  0.21529696  0.70981364     0.05020
C2808       C  0.28665702  0.23718025  0.71511323    -0.03530
Br2809     Br  0.29020637  0.24650972  0.74426911    -0.03230
H2810       H  0.28517857  0.26971803  0.70346748     0.08930
H2811       H  0.28092643  0.19255470  0.68373561     0.06950
Br2812     Br  0.27925717  0.21463578  0.64277764    -0.03660
C2813       C  0.22352781  0.30745835  0.70251643    -0.10290
C2814       C  0.21764670  0.31209843  0.68120446     0.05900
C2815       C  0.19554594  0.31423638  0.67626274    -0.04060
C2816       C  0.17984463  0.30952492  0.69170357    -0.08510
C2817       C  0.18566889  0.30258899  0.71235513     0.05020
C2818       C  0.20776077  0.30268211  0.71809844    -0.03530
Br2819     Br  0.21758254  0.29308314  0.74570478    -0.03230
H2820       H  0.24041925  0.30507663  0.70644016     0.08930
H2821       H  0.16296470  0.30989997  0.68707852     0.06950
Br2822     Br  0.18595797  0.32059433  0.64770966    -0.03660
C2823       C  0.18008545  0.29711822  0.58716325    -0.10290
C2824       C  0.19938937  0.28685705  0.58094327     0.05900
C2825       C  0.20079219  0.27701636  0.56039505    -0.04060
C2826       C  0.18332675  0.27775640  0.54670482    -0.08510
C2827       C  0.16468070  0.28887443  0.55238545     0.05020
C2828       C  0.16276050  0.29854820  0.57271012    -0.03530
Br2829     Br  0.13749298  0.31455392  0.58058886    -0.03230
H2830       H  0.17886484  0.30484640  0.60273656     0.08930
H2831       H  0.18470258  0.27033936  0.53093380     0.06950
Br2832     Br  0.22591019  0.26272372  0.54886423    -0.03660
C2833       C  0.27666215  0.37150072  0.59142637    -0.10290
C2834       C  0.25955473  0.35895243  0.59922131     0.05900
C2835       C  0.23825090  0.36589926  0.59494036    -0.04060
C2836       C  0.23443044  0.38386089  0.58170957    -0.08510
C2837       C  0.25150208  0.39438068  0.57131004     0.05020
C2838       C  0.27279470  0.38893649  0.57754493    -0.03530
Br2839     Br  0.29720077  0.40348519  0.56535740    -0.03230
H2840       H  0.29312860  0.36661834  0.59450234     0.08930
H2841       H  0.21803290  0.38806867  0.57764774     0.06950
Br2842     Br  0.21383860  0.34976479  0.60473543    -0.03660
C2843       C  0.34040913  0.27387979  0.60356455    -0.10290
C2844       C  0.33159274  0.29460038  0.60584268     0.05900
C2845       C  0.34193246  0.31179078  0.59540607    -0.04060
C2846       C  0.35821884  0.30770706  0.58018082    -0.08510
C2847       C  0.36495060  0.28659067  0.57568141     0.05020
C2848       C  0.35739602  0.26995063  0.58899738    -0.03530
Br2849     Br  0.36892339  0.24145989  0.58654172    -0.03230
H2850       H  0.33289283  0.26043936  0.61168932     0.08930
H2851       H  0.36396952  0.32080759  0.57026007     0.06950
Br2852     Br  0.33231255  0.34078167  0.59960842    -0.03660
C2853       C  0.27471207  0.21610105  0.57785378    -0.10290
C2854       C  0.25583428  0.22647683  0.58493161     0.05900
C2855       C  0.23550825  0.21779800  0.57881867    -0.04060
C2856       C  0.23455559  0.20260546  0.56230891    -0.08510
C2857       C  0.25345917  0.19410183  0.55354676     0.05020
C2858       C  0.27339423  0.19900309  0.56315003    -0.03530
Br2859     Br  0.29819870  0.18124807  0.55828815    -0.03230
H2860       H  0.29033927  0.22115748  0.58385529     0.08930
H2861       H  0.21901334  0.19805656  0.55567248     0.06950
Br2862     Br  0.20819577  0.22681958  0.59065611    -0.03660
C2863       C  0.97404794  0.06641979  0.28643824    -0.10290
C2864       C  0.96874797  0.06291393  0.30810719     0.05900
C2865       C  0.94687966  0.06388214  0.31451582    -0.04060
C2866       C  0.93076491  0.06436125  0.29895490    -0.08510
C2867       C  0.93611821  0.06442019  0.27710939     0.05020
C2868       C  0.95773899  0.06734683  0.27088468    -0.03530
Br2869     Br  0.96577234  0.07005321  0.24131804    -0.03230
H2870       H  0.99079031  0.06637833  0.28132752     0.08930
H2871       H  0.91403757  0.06262791  0.30385764     0.06950
Br2872     Br  0.93786784  0.06284450  0.34406132    -0.03660
C2873       C  0.96796791  0.98551914  0.20036273    -0.10290
C2874       C  0.96249897  0.96398193  0.20417492     0.05900
C2875       C  0.94048111  0.95855295  0.20607875    -0.04060
C2876       C  0.92533998  0.97472373  0.20967878    -0.08510
C2877       C  0.93167814  0.99637427  0.21065246     0.05020
C2878       C  0.95261862  0.00184522  0.20346630    -0.03530
Br2879     Br  0.96197932  0.03090085  0.19963031    -0.03230
H2880       H  0.98463369  0.98989660  0.19737555     0.08930
H2881       H  0.90884511  0.97019836  0.21338465     0.06950
Br2882     Br  0.93044822  0.92931815  0.20586268    -0.03660
C2883       C  0.04450980  0.97178202  0.28154415    -0.10290
C2884       C  0.02981461  0.97576694  0.26474065     0.05900
C2885       C  0.01869536  0.99551356  0.26449172    -0.04060
C2886       C  0.02130088  0.01024689  0.28127905    -0.08510
C2887       C  0.03437513  0.00549778  0.29902507     0.05020
C2888       C  0.04665830  0.98643686  0.29878501    -0.03530
Br2889     Br  0.06448869  0.97887311  0.32277135    -0.03230
H2890       H  0.05285846  0.95648476  0.28223697     0.08930
H2891       H  0.01134811  0.02460954  0.28150478     0.06950
Br2892     Br  0.99769100  0.00214415  0.24297994    -0.03660
C2893       C  0.55461316  0.20781976  0.97051967    -0.10290
C2894       C  0.53317896  0.21386930  0.97493103     0.05900
C2895       C  0.52764255  0.23594236  0.97359637    -0.04060
C2896       C  0.54388421  0.25140230  0.97071075    -0.08510
C2897       C  0.56556875  0.24527168  0.96882806     0.05020
C2898       C  0.57067065  0.22325945  0.96741526    -0.03530
Br2899     Br  0.59989266  0.21358299  0.96372601    -0.03230
H2900       H  0.55921738  0.19101095  0.97080133     0.08930
H2901       H  0.53981797  0.26829929  0.97215500     0.06950
Br2902     Br  0.49898236  0.24657704  0.97828573    -0.03660
C2903       C  0.40941177  0.13771983  0.01584100    -0.10290
C2904       C  0.41973476  0.13828272  0.99568489     0.05900
C2905       C  0.41169256  0.12529010  0.97896855    -0.04060
C2906       C  0.39651579  0.10936909  0.98353951    -0.08510
C2907       C  0.38879952  0.10645024  0.00458267     0.05020
C2908       C  0.39335573  0.12234057  0.02010016    -0.03530
Br2909     Br  0.37942806  0.12261210  0.04756495    -0.03230
H2910       H  0.41506042  0.14800809  0.02876860     0.08930
H2911       H  0.39266964  0.09763654  0.97117292     0.06950
Br2912     Br  0.42387915  0.12582360  0.95065092    -0.03660
C2913       C  0.51067023  0.08541797  0.07595209    -0.10290
C2914       C  0.49234775  0.08436419  0.08907483     0.05900
C2915       C  0.47646346  0.10047225  0.08756221    -0.04060
C2916       C  0.47815047  0.11623453  0.07148230    -0.08510
C2917       C  0.49589597  0.11627602  0.05735641     0.05020
C2918       C  0.51257142  0.10119924  0.06027491    -0.03530
Br2919     Br  0.53817665  0.10108122  0.04301013    -0.03230
H2920       H  0.52329368  0.07340762  0.07742533     0.08930
H2921       H  0.46539356  0.12801746  0.06962644     0.06950
Br2922     Br  0.45326661  0.10212063  0.10785935    -0.03660
C2923       C  0.41692841  0.04985087  0.10570733    -0.10290
C2924       C  0.41796710  0.02824868  0.11184828     0.05900
C2925       C  0.40212296  0.01407917  0.10375190    -0.04060
C2926       C  0.38738948  0.02101481  0.08787399    -0.08510
C2927       C  0.38836851  0.04204614  0.07968307     0.05020
C2928       C  0.40258165  0.05670957  0.08970807    -0.03530
Br2929     Br  0.40519450  0.08567607  0.07999218    -0.03230
H2930       H  0.42904659  0.06094693  0.11158267     0.08930
H2931       H  0.37676887  0.00935240  0.08038308     0.06950
Br2932     Br  0.40123871  0.98477231  0.11273528    -0.03660
C2933       C  0.53844830  0.00361164  0.22793466    -0.10290
C2934       C  0.56045205  0.00279458  0.22217667     0.05900
C2935       C  0.56563553  0.99896434  0.20032375    -0.04060
C2936       C  0.54941374  0.99848178  0.18462574    -0.08510
C2937       C  0.52765039  0.00145637  0.19006267     0.05020
C2938       C  0.52211229  0.00299002  0.21207494    -0.03530
Br2939     Br  0.49269155  0.00678881  0.22094589    -0.03230
H2940       H  0.53398050  0.00658536  0.24453827     0.08930
H2941       H  0.55399904  0.99732599  0.16781531     0.06950
Br2942     Br  0.59477693  0.99553197  0.19059100    -0.03660
C2943       C  0.49091877  0.06405526  0.20490511    -0.10290
C2944       C  0.47452500  0.06638967  0.18975049     0.05900
C2945       C  0.45994433  0.08366660  0.19156156    -0.04060
C2946       C  0.46261269  0.09888344  0.20821230    -0.08510
C2947       C  0.48024108  0.09732630  0.22242566     0.05020
C2948       C  0.49416335  0.07939740  0.22079617    -0.03530
Br2949     Br  0.51950342  0.07572393  0.23806118    -0.03230
H2950       H  0.50255350  0.05111393  0.20321118     0.08930
H2951       H  0.45201762  0.11273085  0.20897872     0.06950
Br2952     Br  0.43742727  0.08766594  0.17084580    -0.03660
C2953       C  0.57078997  0.08294793  0.29740398    -0.10290
C2954       C  0.56116912  0.06286585  0.29422985     0.05900
C2955       C  0.53864796  0.06163209  0.29214892    -0.04060
C2956       C  0.52655347  0.08055403  0.29015577    -0.08510
C2957       C  0.53692605  0.10067722  0.28880662     0.05020
C2958       C  0.55896385  0.10179515  0.29437617    -0.03530
Br2959     Br  0.57431175  0.12806373  0.29731048    -0.03230
H2960       H  0.58817202  0.08402378  0.29934760     0.08930
H2961       H  0.50942504  0.07920531  0.28684078     0.06950
Br2962     Br  0.52450630  0.03452916  0.28802242    -0.03660
C2963       C  0.42266026  0.19412005  0.27453086    -0.10290
C2964       C  0.42989541  0.18012966  0.25845618     0.05900
C2965       C  0.41905650  0.17971367  0.23854993    -0.04060
C2966       C  0.40465037  0.19638309  0.23330380    -0.08510
C2967       C  0.40020471  0.21261937  0.24843104     0.05020
C2968       C  0.40749174  0.20996303  0.26976302    -0.03530
Br2969     Br  0.39867428  0.22880940  0.29250955    -0.03230
H2970       H  0.43036382  0.19414823  0.29019784     0.08930
H2971       H  0.39841844  0.19755702  0.21706495     0.06950
Br2972     Br  0.42405593  0.15682877  0.21840663    -0.03660
C2973       C  0.48225156  0.19452962  0.33737988    -0.10290
C2974       C  0.49744302  0.18226262  0.32590184     0.05900
C2975       C  0.51946664  0.18420641  0.33115311    -0.04060
C2976       C  0.52623901  0.19979440  0.34588707    -0.08510
C2977       C  0.51128328  0.21353653  0.35571603     0.05020
C2978       C  0.48902861  0.20993732  0.35247749    -0.03530
Br2979     Br  0.46756088  0.22799705  0.36562954    -0.03230
H2980       H  0.46529083  0.19353493  0.33318677     0.08930
H2981       H  0.54337286  0.20264156  0.34798339     0.06950
Br2982     Br  0.54127146  0.16908374  0.31546980    -0.03660
C2983       C  0.47835595  0.20409144  0.06450853    -0.10290
C2984       C  0.47183580  0.21020301  0.04380942     0.05900
C2985       C  0.46571279  0.23162417  0.04015714    -0.04060
C2986       C  0.46994441  0.24719130  0.05594883    -0.08510
C2987       C  0.47974013  0.24144547  0.07555584     0.05020
C2988       C  0.48206861  0.21942613  0.08047388    -0.03530
Br2989     Br  0.49096949  0.20909886  0.10822572    -0.03230
H2990       H  0.48234463  0.18743164  0.06771894     0.08930
H2991       H  0.46695020  0.26393111  0.05224962     0.06950
Br2992     Br  0.45356586  0.24063130  0.01333941    -0.03660
C2993       C  0.54754387  0.30820263  0.02780264    -0.10290
C2994       C  0.56953717  0.31069142  0.03263239     0.05900
C2995       C  0.57569644  0.31662678  0.05364221    -0.04060
C2996       C  0.56026426  0.31718079  0.07002617    -0.08510
C2997       C  0.53868129  0.31199778  0.06569496     0.05020
C2998       C  0.53208019  0.30865242  0.04426310    -0.03530
Br2999     Br  0.50294310  0.30073653  0.03732230    -0.03230
H3000       H  0.54266707  0.30341200  0.01173506     0.08930
H3001       H  0.56545973  0.31973390  0.08649603     0.06950
Br3002     Br  0.60533793  0.32188320  0.06106674    -0.03660
C3003       C  0.48697728  0.22018260  0.17415934    -0.10290
C3004       C  0.50670020  0.22790265  0.16640874     0.05900
C3005       C  0.52584454  0.21636940  0.17138943    -0.04060
C3006       C  0.52491187  0.19836538  0.18494303    -0.08510
C3007       C  0.50529333  0.19174081  0.19400920     0.05020
C3008       C  0.48620829  0.20251505  0.18791196    -0.03530
Br3009     Br  0.45875736  0.19536586  0.19972777    -0.03230
H3010       H  0.47211209  0.22856731  0.17033804     0.08930
H3011       H  0.53984347  0.19092104  0.19017081     0.06950
Br3012     Br  0.55412915  0.22599432  0.16306351    -0.03660
C3013       C  0.42644386  0.26567811  0.14726162    -0.10290
C3014       C  0.43163360  0.28750428  0.14506268     0.05900
C3015       C  0.41801106  0.30304396  0.15444163    -0.04060
C3016       C  0.40065532  0.29666156  0.16733312    -0.08510
C3017       C  0.39736996  0.27488785  0.17198402     0.05020
C3018       C  0.40959628  0.25930002  0.16087605    -0.03530
Br3019     Br  0.40615525  0.22927368  0.16685250    -0.03230
H3020       H  0.43698651  0.25353702  0.14037732     0.08930
H3021       H  0.39178606  0.30882737  0.17624512     0.06950
Br3022     Br  0.42427494  0.33303058  0.15280130    -0.03660
C3023       C  0.52412593  0.36287683  0.14600536    -0.10290
C3024       C  0.50259857  0.35860756  0.14027877     0.05900
C3025       C  0.48707430  0.37480340  0.14343356    -0.04060
C3026       C  0.49202091  0.39227729  0.15686497    -0.08510
C3027       C  0.51255479  0.39402667  0.16636949     0.05020
C3028       C  0.52926818  0.38067736  0.15880461    -0.03530
Br3029     Br  0.55830013  0.38322910  0.16936879    -0.03230
H3030       H  0.53655148  0.35103942  0.14262831     0.08930
H3031       H  0.47910787  0.40287822  0.16205573     0.06950
Br3032     Br  0.45846385  0.37248808  0.13217787    -0.03660
C3033       C  0.57912116  0.31348324  0.19742767    -0.10290
C3034       C  0.59736188  0.30019338  0.19592281     0.05900
C3035       C  0.60025534  0.28792607  0.17674976    -0.04060
C3036       C  0.58370287  0.28704156  0.16130740    -0.08510
C3037       C  0.56427449  0.29815887  0.16452125     0.05020
C3038       C  0.56264270  0.31240354  0.18218687    -0.03530
Br3039     Br  0.53764315  0.32985617  0.18731919    -0.03230
H3040       H  0.57678318  0.32364569  0.21139691     0.08930
H3041       H  0.58541393  0.27638972  0.14756889     0.06950
Br3042     Br  0.62562596  0.27110756  0.17070133    -0.03660
C3043       C  0.61196311  0.26482892  0.32957626    -0.10290
C3044       C  0.61805164  0.28612650  0.32506003     0.05900
C3045       C  0.61039836  0.30274113  0.33850314    -0.04060
C3046       C  0.59419314  0.29830368  0.35358734    -0.08510
C3047       C  0.58558040  0.27750724  0.35544613     0.05020
C3048       C  0.59571873  0.26043292  0.34456785    -0.03530
Br3049     Br  0.58468647  0.23165922  0.34600165    -0.03230
H3050       H  0.61764453  0.25188336  0.31933983     0.08930
H3051       H  0.58635805  0.31159551  0.36180822     0.06950
Br3052     Br  0.61788330  0.33227503  0.33380642    -0.03660
C3053       C  0.58442156  0.34696516  0.25360536    -0.10290
C3054       C  0.60554674  0.35418654  0.25672686     0.05900
C3055       C  0.61041243  0.37562445  0.25124467    -0.04060
C3056       C  0.59374939  0.38916981  0.24323168    -0.08510
C3057       C  0.57266862  0.38106388  0.23959740     0.05020
C3058       C  0.56863139  0.35922588  0.24456693    -0.03530
Br3059     Br  0.54257993  0.34267647  0.24057504    -0.03230
H3060       H  0.57968024  0.33082179  0.25779491     0.08930
H3061       H  0.59733535  0.40578229  0.23952857     0.06950
Br3062     Br  0.63880202  0.38704569  0.25528733    -0.03660
C3063       C  0.59738323  0.21253948  0.25476194    -0.10290
C3064       C  0.59159393  0.23303055  0.24746413     0.05900
C3065       C  0.56969841  0.23698901  0.24201134    -0.04060
C3066       C  0.55393179  0.22193463  0.24695243    -0.08510
C3067       C  0.55942184  0.20195286  0.25549379     0.05020
C3068       C  0.58150268  0.19673874  0.25796192    -0.03530
Br3069     Br  0.59099637  0.16862524  0.26537548    -0.03230
H3070       H  0.61412788  0.20891243  0.25828537     0.08930
H3071       H  0.53721719  0.22552362  0.24313142     0.06950
Br3072     Br  0.55998993  0.26200186  0.22654881    -0.03660
C3073       C  0.52575908  0.01130783  0.79936726    -0.10290
C3074       C  0.53626848  0.00798887  0.81890381     0.05900
C3075       C  0.55148269  0.99127872  0.82051303    -0.04060
C3076       C  0.55405273  0.97675089  0.80323441    -0.08510
C3077       C  0.54191002  0.97906846  0.78419099     0.05020
C3078       C  0.52867153  0.99733870  0.78209125    -0.03530
Br3079     Br  0.51038883  0.00177519  0.75792048    -0.03230
H3080       H  0.51352820  0.02364881  0.79821113     0.08930
H3081       H  0.56388342  0.96251666  0.80547713     0.06950
Br3082     Br  0.56685207  0.98631933  0.84675715    -0.03660
C3083       C  0.44583860  0.06338506  0.82065680    -0.10290
C3084       C  0.46819517  0.06186746  0.81740260     0.05900
C3085       C  0.47632325  0.06541896  0.79631311    -0.04060
C3086       C  0.46197906  0.06662418  0.77876713    -0.08510
C3087       C  0.43958948  0.06561047  0.78200132     0.05020
C3088       C  0.43172201  0.06585334  0.80329404    -0.03530
Br3089     Br  0.40159769  0.06890208  0.80935096    -0.03230
H3090       H  0.43922373  0.06200578  0.83674967     0.08930
H3091       H  0.46837207  0.06681722  0.76252793     0.06950
Br3092     Br  0.50658271  0.06742566  0.78992207    -0.03660
C3093       C  0.45094592  0.02332627  0.93604819    -0.10290
C3094       C  0.44648771  0.03581103  0.91797181     0.05900
C3095       C  0.42581550  0.04484444  0.91536938    -0.04060
C3096       C  0.41039425  0.04257286  0.93184358    -0.08510
C3097       C  0.41549282  0.03116060  0.95067412     0.05020
C3098       C  0.43569785  0.02073110  0.95220378    -0.03530
Br3099     Br  0.44356563  0.00229669  0.97570535    -0.03230
H3100       H  0.46662517  0.01572604  0.93776770     0.08930
H3101       H  0.39480279  0.05034774  0.93030810     0.06950
Br3102     Br  0.41820763  0.06036064  0.88994052    -0.03660
C3103       C  0.51812733  0.12471688  0.90866236    -0.10290
C3104       C  0.50314111  0.11236771  0.89707973     0.05900
C3105       C  0.48102013  0.11720580  0.89906287    -0.04060
C3106       C  0.47403010  0.13183773  0.91480216    -0.08510
C3107       C  0.48893901  0.14223660  0.92825293     0.05020
C3108       C  0.51117937  0.13985606  0.92393449    -0.03530
Br3109     Br  0.53268763  0.15424620  0.94090423    -0.03230
H3110       H  0.53520356  0.12111874  0.90735025     0.08930
H3111       H  0.45690484  0.13365122  0.91775186     0.06950
Br3112     Br  0.45971994  0.10157272  0.88306454    -0.03660
C3113       C  0.48163323  0.92783382  0.08517005    -0.10290
C3114       C  0.50382468  0.92577246  0.08073649     0.05900
C3115       C  0.51860652  0.93636206  0.09424890    -0.04060
C3116       C  0.51107902  0.95117359  0.10962964    -0.08510
C3117       C  0.48889919  0.95582560  0.11155906     0.05020
C3118       C  0.47412243  0.94277388  0.10040765    -0.03530
Br3119     Br  0.44370166  0.94761579  0.10237165    -0.03230
H3120       H  0.47001140  0.91985233  0.07483388     0.08930
H3121       H  0.52272433  0.96119026  0.11797075     0.06950
Br3122     Br  0.54907316  0.93444801  0.08935066    -0.03660
C3123       C  0.49539711  0.96304642  0.91607146    -0.10290
C3124       C  0.50977982  0.98043248  0.91743588     0.05900
C3125       C  0.52506202  0.98049742  0.93430424    -0.04060
C3126       C  0.52458101  0.96468486  0.95024260    -0.08510
C3127       C  0.50898060  0.94827836  0.95015134     0.05020
C3128       C  0.49490774  0.94700751  0.93208802    -0.03530
Br3129     Br  0.47418511  0.92437390  0.92826482    -0.03230
H3130       H  0.48363391  0.96257113  0.90317534     0.08930
H3131       H  0.53606462  0.96588083  0.96334393     0.06950
Br3132     Br  0.54700655  0.00201298  0.93680906    -0.03660
C3133       C  0.43008521  0.97960462  0.03166567    -0.10290
C3134       C  0.41204173  0.97748345  0.01829228     0.05900
C3135       C  0.40949999  0.95824543  0.00624273    -0.04060
C3136       C  0.42642670  0.94330805  0.00538908    -0.08510
C3137       C  0.44576835  0.94717485  0.01643924     0.05020
C3138       C  0.44689367  0.96484905  0.03071866    -0.03530
Br3139     Br  0.47108656  0.97075968  0.04886300    -0.03230
H3140       H  0.43204821  0.99372628  0.04174492     0.08930
H3141       H  0.42497915  0.92937793  0.99496563     0.06950
Br3142     Br  0.38391360  0.95150782  0.99006900    -0.03660
C3143       C  0.56418754  0.00176232  0.05886711    -0.10290
C3144       C  0.58255383  0.01477502  0.06033999     0.05900
C3145       C  0.58548405  0.02730844  0.07923087    -0.04060
C3146       C  0.56886801  0.02853615  0.09467631    -0.08510
C3147       C  0.54929468  0.01759003  0.09150025     0.05020
C3148       C  0.54760259  0.00332622  0.07383699    -0.03530
Br3149     Br  0.52261486  0.98639358  0.06772590    -0.03230
H3150       H  0.56171520  0.99149061  0.04495741     0.08930
H3151       H  0.57069354  0.03919488  0.10838521     0.06950
Br3152     Br  0.61135250  0.04339577  0.08476453    -0.03660
C3153       C  0.58425615  0.02670900  0.89828837    -0.10290
C3154       C  0.57485255  0.04704645  0.90149729     0.05900
C3155       C  0.58237915  0.06022369  0.91823793    -0.04060
C3156       C  0.59664094  0.05177247  0.93331607    -0.08510
C3157       C  0.60292303  0.03005962  0.93228077     0.05020
C3158       C  0.59833856  0.01809007  0.91365434    -0.03530
Br3159     Br  0.60755984  0.98888444  0.91046090    -0.03230
H3160       H  0.57837493  0.01641125  0.88548167     0.08930
H3161       H  0.60036800  0.06125928  0.94751921     0.06950
Br3162     Br  0.56986329  0.08791919  0.92393341    -0.03660
C3163       C  0.60666907  0.94194372  0.01425889    -0.10290
C3164       C  0.60486403  0.94980038  0.99319532     0.05900
C3165       C  0.59041787  0.93988377  0.97880393    -0.04060
C3166       C  0.57588808  0.92460958  0.98639362    -0.08510
C3167       C  0.57516169  0.91967198  0.00833608     0.05020
C3168       C  0.59162759  0.92706746  0.02199196    -0.03530
Br3169     Br  0.59216509  0.91953249  0.05180714    -0.03230
H3170       H  0.61770644  0.94951492  0.02549687     0.08930
H3171       H  0.56317753  0.91897812  0.97577500     0.06950
Br3172     Br  0.58719748  0.94958119  0.94974585    -0.03660
C3173       C  0.58344552  0.09924194  0.99979547    -0.10290
C3174       C  0.57716243  0.07813596  0.99465410     0.05900
C3175       C  0.55687497  0.07485330  0.98464009    -0.04060
C3176       C  0.54280256  0.09201637  0.98185321    -0.08510
C3177       C  0.54801333  0.11264209  0.98924407     0.05020
C3178       C  0.56904529  0.11648234  0.99722423    -0.03530
Br3179     Br  0.57884812  0.14465999  0.00525823    -0.03230
H3180       H  0.59918487  0.10223268  0.00680235     0.08930
H3181       H  0.52693173  0.08873956  0.97526050     0.06950
Br3182     Br  0.54632112  0.04753169  0.97475154    -0.03660
C3183       C  0.49519250  0.43110476  0.58338521    -0.10290
C3184       C  0.51473903  0.43129938  0.57189936     0.05900
C3185       C  0.53160540  0.44472414  0.57888185    -0.04060
C3186       C  0.52731230  0.46039223  0.59439066    -0.08510
C3187       C  0.50633213  0.46299916  0.60267978     0.05020
C3188       C  0.49102713  0.44673559  0.59910916    -0.03530
Br3189     Br  0.46333902  0.44704404  0.61279588    -0.03230
H3190       H  0.48232839  0.42034689  0.57848785     0.08930
H3191       H  0.53946117  0.47256042  0.59751292     0.06950
Br3192     Br  0.55901480  0.44584999  0.56439189    -0.03660
C3193       C  0.42412895  0.55016025  0.59910439    -0.10290
C3194       C  0.43055717  0.52851417  0.60015821     0.05900
C3195       C  0.41936633  0.51338440  0.58742094    -0.04060
C3196       C  0.40426691  0.52018733  0.57210185    -0.08510
C3197       C  0.40004897  0.54209973  0.56898303     0.05020
C3198       C  0.40901999  0.55697515  0.58361220    -0.03530
Br3199     Br  0.40278285  0.58695347  0.58142585    -0.03230
H3200       H  0.43256974  0.56212272  0.60862453     0.08930
H3201       H  0.39766892  0.50847281  0.56094040     0.06950
Br3202     Br  0.42611431  0.48343243  0.58848418    -0.03660
C3203       C  0.49701559  0.63559399  0.40382113    -0.10290
C3204       C  0.51406623  0.64599479  0.41441662     0.05900
C3205       C  0.53535741  0.64220205  0.40727679    -0.04060
C3206       C  0.53960191  0.62535267  0.39286398    -0.08510
C3207       C  0.52268309  0.61275350  0.38476645     0.05020
C3208       C  0.50119568  0.61897476  0.38906600    -0.03530
Br3209     Br  0.47718460  0.60270071  0.37828607    -0.03230
H3210       H  0.48057163  0.63831285  0.40911836     0.08930
H3211       H  0.55620052  0.62083432  0.38959873     0.06950
Br3212     Br  0.55928169  0.65752236  0.41956646    -0.03660
C3213       C  0.43551083  0.63984918  0.50176412    -0.10290
C3214       C  0.44312216  0.63990772  0.48038538     0.05900
C3215       C  0.43355575  0.62551391  0.46560813    -0.04060
C3216       C  0.41846075  0.61026574  0.47258880    -0.08510
C3217       C  0.41246664  0.60865492  0.49435586     0.05020
C3218       C  0.42039257  0.62434272  0.50880152    -0.03530
Br3219     Br  0.41358606  0.62333751  0.53874736    -0.03230
H3220       H  0.44295030  0.65039186  0.51353093     0.08930
H3221       H  0.41262624  0.59841306  0.46115484     0.06950
Br3222     Br  0.44205022  0.62470320  0.43591302    -0.03660
C3223       C  0.50551757  0.62376190  0.56182848    -0.10290
C3224       C  0.49695584  0.61885643  0.54145949     0.05900
C3225       C  0.48307085  0.60085795  0.53930116    -0.04060
C3226       C  0.48058432  0.58688682  0.55650585    -0.08510
C3227       C  0.49201466  0.59005738  0.57569433     0.05020
C3228       C  0.50308437  0.60959800  0.57896900    -0.03530
Br3229     Br  0.51598475  0.61757341  0.60597361    -0.03230
H3230       H  0.51521709  0.63806188  0.56419886     0.08930
H3231       H  0.47132435  0.57231376  0.55398407     0.06950
Br3232     Br  0.46871645  0.59227189  0.51315933    -0.03660
C3233       C  0.58390494  0.47855517  0.48422443    -0.10290
C3234       C  0.60490799  0.47085443  0.48128102     0.05900
C3235       C  0.60920980  0.44911403  0.48607380    -0.04060
C3236       C  0.59220607  0.43574787  0.49344410    -0.08510
C3237       C  0.57121994  0.44414011  0.49679594     0.05020
C3238       C  0.56753919  0.46612239  0.49209653    -0.03530
Br3239     Br  0.54111848  0.48230538  0.49502680    -0.03230
H3240       H  0.57981417  0.49510808  0.48082005     0.08930
H3241       H  0.59546962  0.41901223  0.49691482     0.06950
Br3242     Br  0.63740944  0.43702926  0.48228654    -0.03660
C3243       C  0.57422963  0.51704763  0.53821954    -0.10290
C3244       C  0.59399926  0.52754229  0.54180152     0.05900
C3245       C  0.59719767  0.53751680  0.56218266    -0.04060
C3246       C  0.58013663  0.53863117  0.57721157    -0.08510
C3247       C  0.55981603  0.52967540  0.57265060     0.05020
C3248       C  0.55744116  0.51783357  0.55330026    -0.03530
Br3249     Br  0.53177044  0.50187751  0.54643832    -0.03230
H3250       H  0.57144241  0.50862101  0.52321559     0.08930
H3251       H  0.58258174  0.54718857  0.59223074     0.06950
Br3252     Br  0.62425738  0.54987930  0.57088103    -0.03660
C3253       C  0.59607855  0.59665339  0.46898369    -0.10290
C3254       C  0.61026676  0.59605824  0.48651647     0.05900
C3255       C  0.60798213  0.61127230  0.50313941    -0.04060
C3256       C  0.59002124  0.62507854  0.50314305    -0.08510
C3257       C  0.57404028  0.62318429  0.48711975     0.05020
C3258       C  0.57770034  0.60938604  0.46946507    -0.03530
Br3259     Br  0.55747671  0.60511714  0.44646304    -0.03230
H3260       H  0.59763984  0.58487319  0.45617385     0.08930
H3261       H  0.58758625  0.63591985  0.51662032     0.06950
Br3262     Br  0.62705387  0.61156009  0.52742205    -0.03660
C3263       C  0.61488678  0.51937499  0.40286195    -0.10290
C3264       C  0.62336577  0.53675051  0.41456509     0.05900
C3265       C  0.61814916  0.55783605  0.40795698    -0.04060
C3266       C  0.60172655  0.56117858  0.39279809    -0.08510
C3267       C  0.59065811  0.54366209  0.38386404     0.05020
C3268       C  0.59862287  0.52275267  0.38753000    -0.03530
Br3269     Br  0.58539545  0.49823028  0.37412939    -0.03230
H3270       H  0.61881542  0.50306146  0.40750182     0.08930
H3271       H  0.59593037  0.57737425  0.39001408     0.06950
Br3272     Br  0.63116061  0.58250951  0.42128901    -0.03660
C3273       C  0.27762323  0.98108267  0.02166415    -0.10290
C3274       C  0.28474926  0.95970791  0.02072890     0.05900
C3275       C  0.30635670  0.95491215  0.02550293    -0.04060
C3276       C  0.32102885  0.97160070  0.02882147    -0.08510
C3277       C  0.31459172  0.99322081  0.02686339     0.05020
C3278       C  0.29236715  0.99790885  0.02471408    -0.03530
Br3279     Br  0.28151614  0.02667738  0.02244940    -0.03230
H3280       H  0.26093020  0.98482504  0.01796505     0.08930
H3281       H  0.33796603  0.96763580  0.03082738     0.06950
Br3282     Br  0.31691029  0.92588967  0.02540689    -0.03660
C3283       C  0.27226621  0.11012891  0.84735739    -0.10290
C3284       C  0.25009815  0.11076196  0.85148034     0.05900
C3285       C  0.23764542  0.12734135  0.84242973    -0.04060
C3286       C  0.24708014  0.14152490  0.82758680    -0.08510
C3287       C  0.26861622  0.13863423  0.82090578     0.05020
C3288       C  0.28136718  0.12320667  0.83163629    -0.03530
Br3289     Br  0.31031172  0.11655028  0.82347120    -0.03230
H3290       H  0.28199945  0.09734735  0.85417885     0.08930
H3291       H  0.23691591  0.15315444  0.81949508     0.06950
Br3292     Br  0.20754904  0.13012224  0.84880949    -0.03660
C3293       C  0.27360297  0.97235830  0.81795264    -0.10290
C3294       C  0.25479114  0.98448960  0.82108609     0.05900
C3295       C  0.23670320  0.98025022  0.80797585    -0.04060
C3296       C  0.23782463  0.96472770  0.79166519    -0.08510
C3297       C  0.25700437  0.95335681  0.78756603     0.05020
C3298       C  0.27503448  0.95713937  0.80125311    -0.03530
Br3299     Br  0.30297258  0.94426365  0.79693038    -0.03230
H3300       H  0.28779514  0.97582843  0.82755991     0.08930
H3301       H  0.22375239  0.96211129  0.78162200     0.06950
Br3302     Br  0.21008883  0.99552511  0.81122767    -0.03660
C3303       C  0.29932793  0.04468740  0.79725869    -0.10290
C3304       C  0.30518513  0.05191335  0.81767304     0.05900
C3305       C  0.32709494  0.05481897  0.82272540    -0.04060
C3306       C  0.34292107  0.04983836  0.80742460    -0.08510
C3307       C  0.33714740  0.04200518  0.78702852     0.05020
C3308       C  0.31488766  0.03934947  0.78208089    -0.03530
Br3309     Br  0.30384145  0.02681149  0.75587196    -0.03230
H3310       H  0.28246468  0.04163531  0.79359932     0.08930
H3311       H  0.35967722  0.05222743  0.81146893     0.06950
Br3312     Br  0.33596160  0.06656404  0.84975548    -0.03660
C3313       C  0.17324985  0.01716816  0.84959197    -0.10290
C3314       C  0.17980017  0.03885473  0.84954784     0.05900
C3315       C  0.16949962  0.05305152  0.83529327    -0.04060
C3316       C  0.15576418  0.04502729  0.81933331    -0.08510
C3317       C  0.15227054  0.02282535  0.81703947     0.05020
C3318       C  0.15947242  0.00909414  0.83345537    -0.03530
Br3319     Br  0.15412103  0.97882363  0.83223704    -0.03230
H3320       H  0.18115425  0.00592793  0.86029758     0.08930
H3321       H  0.15025198  0.05585902  0.80684645     0.06950
Br3322     Br  0.17772492  0.08264505  0.83353730    -0.03660
C3323       C  0.21890781  0.98931726  0.92548374    -0.10290
C3324       C  0.23873903  0.00000527  0.92308863     0.05900
C3325       C  0.25595043  0.99511897  0.93718186    -0.04060
C3326       C  0.25380629  0.97861524  0.95182157    -0.08510
C3327       C  0.23487180  0.96664141  0.95283335     0.05020
C3328       C  0.21690553  0.97252663  0.94036381    -0.03530
Br3329     Br  0.18999033  0.95773671  0.94258593    -0.03230
H3330       H  0.20544467  0.99321387  0.91506662     0.08930
H3331       H  0.26751318  0.97435364  0.96182472     0.06950
Br3332     Br  0.28330004  0.00955387  0.93729342    -0.03660
C3333       C  0.28762474  0.06830251  0.94273851    -0.10290
C3334       C  0.29563560  0.06022192  0.92294544     0.05900
C3335       C  0.31748741  0.05320131  0.92235368    -0.04060
C3336       C  0.32984561  0.05311994  0.94105444    -0.08510
C3337       C  0.32108322  0.05871555  0.96106211     0.05020
C3338       C  0.30009347  0.06740855  0.96174665    -0.03530
Br3339     Br  0.28711238  0.07612654  0.98836365    -0.03230
H3340       H  0.27106891  0.07384923  0.94383615     0.08930
H3341       H  0.34609712  0.04660687  0.94028128     0.06950
Br3342     Br  0.33140630  0.03975100  0.89817273    -0.03660
C3343       C  0.98682962  0.58826178  0.15890271    -0.10290
C3344       C  0.98823479  0.56699740  0.16641306     0.05900
C3345       C  0.98635643  0.56345514  0.18879848    -0.04060
C3346       C  0.98581657  0.58102031  0.20313695    -0.08510
C3347       C  0.98677377  0.60218909  0.19550078     0.05020
C3348       C  0.98611047  0.60569243  0.17315969    -0.03530
Br3349     Br  0.98555528  0.63408905  0.16128754    -0.03230
H3350       H  0.98770661  0.59144625  0.14178210     0.08930
H3351       H  0.98632588  0.57810472  0.22031433     0.06950
Br3352     Br  0.98687591  0.53535559  0.20100393    -0.03660
C3353       C  0.99150140  0.44049698  0.08010221    -0.10290
C3354       C  0.00798576  0.45316163  0.08907295     0.05900
C3355       C  0.02960547  0.44674773  0.08558842    -0.04060
C3356       C  0.03449424  0.43031612  0.07074079    -0.08510
C3357       C  0.01802036  0.41901013  0.06009232     0.05020
C3358       C  0.99637941  0.42330911  0.06603604    -0.03530
Br3359     Br  0.97281944  0.40774775  0.05342685    -0.03230
H3360       H  0.97480167  0.44491851  0.08271010     0.08930
H3361       H  0.05121934  0.42720212  0.06660820     0.06950
Br3362     Br  0.05302161  0.46111973  0.09986493    -0.03660
C3363       C  0.09082870  0.52215080  0.08122851    -0.10290
C3364       C  0.07077820  0.51302331  0.07585837     0.05900
C3365       C  0.06955744  0.49869627  0.05822765    -0.04060
C3366       C  0.08770976  0.49495335  0.04579424    -0.08510
C3367       C  0.10625730  0.50754985  0.04830425     0.05020
C3368       C  0.10855388  0.51984215  0.06732824    -0.03530
Br3369     Br  0.13490893  0.53429031  0.07479193    -0.03230
H3370       H  0.09222516  0.53255542  0.09518462     0.08930
H3371       H  0.08615893  0.48412542  0.03227086     0.06950
Br3372     Br  0.04349614  0.48544943  0.04790338    -0.03660
C3373       C  0.07492995  0.43862011  0.00027723    -0.10290
C3374       C  0.07973466  0.41725844  0.99556593     0.05900
C3375       C  0.10054980  0.41268535  0.98723589    -0.04060
C3376       C  0.11561145  0.42973460  0.98348706    -0.08510
C3377       C  0.10920306  0.45155957  0.98546946     0.05020
C3378       C  0.08766480  0.45532860  0.99293314    -0.03530
Br3379     Br  0.07068363  0.48111514  0.98959751    -0.03230
H3380       H  0.05910296  0.44265212  0.00653356     0.08930
H3381       H  0.13151259  0.42597707  0.97724145     0.06950
Br3382     Br  0.10826442  0.38387461  0.97964064    -0.03660
C3383       C  0.21445914  0.55542988  0.95052240    -0.10290
C3384       C  0.19278111  0.55850787  0.95650551     0.05900
C3385       C  0.18442096  0.57962108  0.95601705    -0.04060
C3386       C  0.19812969  0.59715895  0.95368466    -0.08510
C3387       C  0.22045827  0.59437651  0.95153837     0.05020
C3388       C  0.22823533  0.57327085  0.94734895    -0.03530
Br3389     Br  0.25756738  0.56758079  0.93899029    -0.03230
H3390       H  0.22109228  0.53932183  0.94991149     0.08930
H3391       H  0.19137763  0.61316226  0.95537681     0.06950
Br3392     Br  0.15456777  0.58607399  0.96013723    -0.03660
C3393       C  0.08532892  0.59633185  0.26344097    -0.10290
C3394       C  0.07792063  0.57511737  0.26245717     0.05900
C3395       C  0.05563164  0.57098529  0.26237875    -0.04060
C3396       C  0.04107618  0.58815059  0.26137990    -0.08510
C3397       C  0.04856082  0.60943932  0.25981120     0.05020
C3398       C  0.07091196  0.61351375  0.26211384    -0.03530
Br3399     Br  0.08314272  0.64188616  0.26179018    -0.03230
H3400       H  0.10255107  0.59952351  0.26340758     0.08930
H3401       H  0.02402642  0.58464934  0.25956485     0.06950
Br3402     Br  0.04458705  0.54226510  0.26000824    -0.03660
C3403       C  0.05932962  0.49858987  0.20591378    -0.10290
C3404       C  0.08050632  0.50413917  0.19986373     0.05900
C3405       C  0.08663493  0.50152680  0.17806495    -0.04060
C3406       C  0.07083467  0.49793200  0.16250944    -0.08510
C3407       C  0.04904343  0.49621655  0.16828729     0.05020
C3408       C  0.04368194  0.49416432  0.19015968    -0.03530
Br3409     Br  0.01502230  0.48686630  0.19894375    -0.03230
H3410       H  0.05452664  0.49922055  0.22267367     0.08930
H3411       H  0.07528974  0.49872507  0.14564546     0.06950
Br3412     Br  0.11596230  0.50395441  0.16811203    -0.03660
C3413       C  0.16308681  0.45799178  0.27297656    -0.10290
C3414       C  0.14846509  0.46055803  0.25618943     0.05900
C3415       C  0.15069284  0.44733313  0.23782084    -0.04060
C3416       C  0.16934862  0.43447529  0.23538871    -0.08510
C3417       C  0.18678182  0.43729961  0.24964747     0.05020
C3418       C  0.18362695  0.45074508  0.26790257    -0.03530
Br3419     Br  0.20581461  0.46809363  0.28085253    -0.03230
H3420       H  0.16142088  0.46837152  0.28698826     0.08930
H3421       H  0.17146211  0.42496701  0.22089600     0.06950
Br3422     Br  0.13079781  0.44959924  0.21436382    -0.03660
C3423       C  0.16087316  0.51894759  0.32575177    -0.10290
C3424       C  0.15441224  0.53551381  0.31195976     0.05900
C3425       C  0.16068369  0.55678627  0.31703235    -0.04060
C3426       C  0.17572709  0.56074852  0.33356422    -0.08510
C3427       C  0.18442507  0.54371301  0.34552756     0.05020
C3428       C  0.17555925  0.52297935  0.34253661    -0.03530
Br3429     Br  0.18488031  0.49926319  0.35977807    -0.03230
H3430       H  0.15613866  0.50253293  0.32227386     0.08930
H3431       H  0.18221879  0.57680593  0.33552796     0.06950
Br3432     Br  0.15037048  0.58065773  0.30044657    -0.03660
C3433       C  0.23784289  0.50323029  0.03754165    -0.10290
C3434       C  0.23178030  0.50214410  0.05932353     0.05900
C3435       C  0.21078251  0.49522200  0.06444628    -0.04060
C3436       C  0.19567330  0.49156885  0.04801390    -0.08510
C3437       C  0.20099888  0.49497788  0.02625012     0.05020
C3438       C  0.22266768  0.49969440  0.02104373    -0.03530
Br3439     Br  0.23132771  0.50534534  0.99196078    -0.03230
H3440       H  0.25387880  0.50878134  0.03334763     0.08930
H3441       H  0.17904148  0.48833084  0.05240471     0.06950
Br3442     Br  0.20124977  0.49350282  0.09378216    -0.03660
C3443       C  0.29577390  0.60094505  0.03141902    -0.10290
C3444       C  0.28168571  0.59516233  0.01471139     0.05900
C3445       C  0.27092370  0.57522857  0.01579597    -0.04060
C3446       C  0.27386010  0.56179128  0.03341571    -0.08510
C3447       C  0.28611848  0.56848033  0.05104302     0.05020
C3448       C  0.29756035  0.58801402  0.04981530    -0.03530
Br3449     Br  0.31416489  0.59853547  0.07347035    -0.03230
H3450       H  0.30368440  0.61647404  0.03114233     0.08930
H3451       H  0.26437102  0.54719862  0.03447608     0.06950
Br3452     Br  0.24937034  0.56676284  0.99558750    -0.03660
C3453       C  0.16970442  0.53812140  0.16368813    -0.10290
C3454       C  0.17430582  0.52494042  0.18156230     0.05900
C3455       C  0.19355138  0.51263266  0.18130854    -0.04060
C3456       C  0.20888441  0.51628449  0.16528491    -0.08510
C3457       C  0.20533137  0.53150171  0.14909116     0.05020
C3458       C  0.18499785  0.54132474  0.14739844    -0.03530
Br3459     Br  0.17823823  0.56091182  0.12462462    -0.03230
H3460       H  0.15472644  0.54711955  0.16304104     0.08930
H3461       H  0.22431047  0.50805954  0.16619477     0.06950
Br3462     Br  0.20127655  0.49193089  0.20292451    -0.03660
C3463       C  0.28142402  0.46216270  0.18884451    -0.10290
C3464       C  0.26371153  0.44803507  0.18740654     0.05900
C3465       C  0.25268726  0.44661986  0.16747764    -0.04060
C3466       C  0.25797324  0.46085948  0.15061458    -0.08510
C3467       C  0.27447754  0.47619151  0.15306523     0.05020
C3468       C  0.28670483  0.47612209  0.17212917    -0.03530
Br3469     Br  0.30938793  0.49659507  0.17711332    -0.03230
H3470       H  0.29065923  0.46324871  0.20358467     0.08930
H3471       H  0.24815102  0.46098859  0.13619037     0.06950
Br3472     Br  0.22918471  0.42711522  0.16284678    -0.03660
C3473       C  0.35027718  0.52460367  0.14373080    -0.10290
C3474       C  0.33791189  0.54126549  0.13488653     0.05900
C3475       C  0.34381852  0.56265300  0.13945249    -0.04060
C3476       C  0.35939184  0.56712017  0.15515406    -0.08510
C3477       C  0.36965728  0.55040890  0.16615921     0.05020
C3478       C  0.36624893  0.52906611  0.15914993    -0.03530
Br3479     Br  0.38034570  0.50530501  0.17286332    -0.03230
H3480       H  0.34593058  0.50803813  0.14048406     0.08930
H3481       H  0.36173600  0.58359101  0.16039577     0.06950
Br3482     Br  0.32891896  0.58627514  0.12680731    -0.03660
C3483       C  0.24100745  0.63278547  0.16453542    -0.10290
C3484       C  0.26001319  0.63844020  0.17543328     0.05900
C3485       C  0.27973987  0.62964994  0.16858635    -0.04060
C3486       C  0.27997998  0.61351280  0.15301205    -0.08510
C3487       C  0.26075550  0.60569816  0.14393029     0.05020
C3488       C  0.24120562  0.61654411  0.14875453    -0.03530
Br3489     Br  0.21388417  0.60817505  0.13688690    -0.03230
H3490       H  0.22568614  0.63944253  0.16978338     0.08930
H3491       H  0.29517568  0.60581656  0.14940187     0.06950
Br3492     Br  0.30659329  0.63749152  0.18175325    -0.03660
C3493       C  0.27967544  0.62962404  0.31907821    -0.10290
C3494       C  0.26314481  0.64066419  0.30837584     0.05900
C3495       C  0.24147845  0.63633312  0.31388246    -0.04060
C3496       C  0.23665383  0.62000842  0.32868152    -0.08510
C3497       C  0.25323456  0.60812457  0.33841420     0.05020
C3498       C  0.27487600  0.61357891  0.33406669    -0.03530
Br3499     Br  0.29841875  0.59765652  0.34607454    -0.03230
H3500       H  0.29636578  0.63236933  0.31457382     0.08930
H3501       H  0.21994494  0.61569935  0.33157168     0.06950
Br3502     Br  0.21798911  0.65032828  0.29949839    -0.03660
C3503       C  0.33215936  0.62841949  0.26502478    -0.10290
C3504       C  0.33173330  0.64451077  0.24961119     0.05900
C3505       C  0.34735102  0.64443399  0.23311900    -0.04060
C3506       C  0.36178878  0.62701116  0.23110167    -0.08510
C3507       C  0.35987871  0.60909722  0.24472842     0.05020
C3508       C  0.34504027  0.61037195  0.26221970    -0.03530
Br3509     Br  0.33752311  0.58705683  0.28084717    -0.03230
H3510       H  0.31989625  0.62823023  0.27752260     0.08930
H3511       H  0.37284457  0.62650827  0.21758466     0.06950
Br3512     Br  0.34835339  0.66715626  0.21247028    -0.03660
C3513       C  0.20664312  0.60635288  0.25760114    -0.10290
C3514       C  0.20374689  0.62445217  0.24456760     0.05900
C3515       C  0.18415785  0.62659107  0.23297395    -0.04060
C3516       C  0.16927192  0.60959533  0.23287546    -0.08510
C3517       C  0.17375500  0.59041604  0.24382460     0.05020
C3518       C  0.19232066  0.58930152  0.25701134    -0.03530
Br3519     Br  0.20055942  0.56478206  0.27389220    -0.03230
H3520       H  0.22102465  0.60465496  0.26739277     0.08930
H3521       H  0.15489202  0.61082205  0.22302015     0.06950
Br3522     Br  0.17702705  0.65133069  0.21598081    -0.03660
C3523       C  0.98076783  0.54489950  0.78600331    -0.10290
C3524       C  0.97282503  0.54478529  0.80723065     0.05900
C3525       C  0.95051778  0.54842577  0.81063999    -0.04060
C3526       C  0.93650444  0.54944297  0.79309147    -0.08510
C3527       C  0.94416363  0.54678364  0.77205463     0.05020
C3528       C  0.96655674  0.54569684  0.76845777    -0.03530
Br3529     Br  0.97815534  0.54259015  0.74008457    -0.03230
H3530       H  0.99781186  0.54227848  0.78297173     0.08930
H3531       H  0.91924282  0.55022415  0.79601198     0.06950
Br3532     Br  0.93764001  0.55027749  0.83871924    -0.03660
C3533       C  0.02789134  0.44009892  0.79974148    -0.10290
C3534       C  0.02136570  0.44495032  0.77871919     0.05900
C3535       C  0.02231929  0.46649751  0.77161659    -0.04060
C3536       C  0.02784616  0.48284484  0.78611309    -0.08510
C3537       C  0.03242520  0.47812526  0.80763897     0.05020
C3538       C  0.03353314  0.45649213  0.81411338    -0.03530
Br3539     Br  0.04017039  0.44887930  0.84323038    -0.03230
H3540       H  0.02776200  0.42359613  0.80526484     0.08930
H3541       H  0.02616755  0.49945913  0.78116982     0.06950
Br3542     Br  0.01304401  0.47515018  0.74346818    -0.03660
C3543       C  0.11206293  0.50265896  0.90539327    -0.10290
C3544       C  0.11569037  0.52033540  0.91911598     0.05900
C3545       C  0.10565646  0.54011285  0.91394084    -0.04060
C3546       C  0.08976609  0.54099941  0.89799141    -0.08510
C3547       C  0.08394373  0.52257559  0.88645979     0.05020
C3548       C  0.09647581  0.50383226  0.88892390    -0.03530
Br3549     Br  0.09270779  0.47980529  0.86995323    -0.03230
H3550       H  0.12007349  0.48748800  0.90844741     0.08930
H3551       H  0.08062160  0.55572271  0.89592258     0.06950
Br3552     Br  0.11189616  0.56631767  0.92888018    -0.03660
C3553       C  0.02432180  0.43076722  0.92335121    -0.10290
C3554       C  0.00429154  0.42236535  0.92946898     0.05900
C3555       C  0.98549192  0.42916266  0.91869278    -0.04060
C3556       C  0.98691614  0.44531364  0.90302232    -0.08510
C3557       C  0.00680701  0.45522948  0.89859212     0.05020
C3558       C  0.02563663  0.44733912  0.90842290    -0.03530
Br3559     Br  0.05323752  0.46027248  0.90413257    -0.03230
H3560       H  0.03880563  0.42597103  0.93190129     0.08930
H3561       H  0.97223415  0.45157922  0.89590707     0.06950
Br3562     Br  0.95739759  0.41953359  0.92739494    -0.03660
C3563       C  0.91860377  0.51833279  0.91914874    -0.10290
C3564       C  0.92152378  0.53322491  0.93581945     0.05900
C3565       C  0.93871429  0.54797265  0.93473824    -0.04060
C3566       C  0.95453154  0.54536899  0.91913309    -0.08510
C3567       C  0.95343144  0.52841176  0.90424413     0.05020
C3568       C  0.93433575  0.51585869  0.90319648    -0.03530
Br3569     Br  0.92910485  0.49386931  0.88198921    -0.03230
H3570       H  0.90503001  0.50734676  0.91954616     0.08930
H3571       H  0.96840699  0.55597324  0.91952462     0.06950
Br3572     Br  0.94221551  0.57133108  0.95471914    -0.03660
C3573       C  0.92077488  0.45451207  0.99571203    -0.10290
C3574       C  0.92739090  0.47448304  0.00406463     0.05900
C3575       C  0.94787419  0.47605162  0.01403306    -0.04060
C3576       C  0.96169066  0.45844914  0.01379548    -0.08510
C3577       C  0.95602110  0.43918609  0.00340294     0.05020
C3578       C  0.93477700  0.43685761  0.99539839    -0.03530
Br3579     Br  0.92369094  0.41045667  0.98361692    -0.03230
H3580       H  0.90484272  0.45277976  0.98870433     0.08930
H3581       H  0.97766003  0.46048381  0.02064087     0.06950
Br3582     Br  0.95973484  0.50198896  0.02623301    -0.03660
C3583       C  0.91071925  0.51060110  0.06693440    -0.10290
C3584       C  0.90419635  0.53213397  0.06547353     0.05900
C3585       C  0.91292914  0.54730822  0.07985578    -0.04060
C3586       C  0.92954971  0.54129639  0.09393035    -0.08510
C3587       C  0.93796775  0.52035532  0.09336710     0.05020
C3588       C  0.92770951  0.50470590  0.08052457    -0.03530
Br3589     Br  0.93844805  0.47582843  0.07872615    -0.03230
H3590       H  0.90445895  0.49886194  0.05560783     0.08930
H3591       H  0.93750530  0.55355285  0.10349026     0.06950
Br3592     Br  0.90455436  0.57693645  0.07854903    -0.03660
C3593       C  0.10731139  0.59724020  0.99534872    -0.10290
C3594       C  0.10126885  0.57656432  0.98835820     0.05900
C3595       C  0.08164619  0.57395687  0.97701227    -0.04060
C3596       C  0.06860546  0.59147049  0.97336539    -0.08510
C3597       C  0.07334934  0.61173232  0.98201865     0.05020
C3598       C  0.09330576  0.61482718  0.99257952    -0.03530
Br3599     Br  0.10227084  0.64232778  0.00337327    -0.03230
H3600       H  0.12245436  0.59953704  0.00377607     0.08930
H3601       H  0.05358484  0.58855226  0.96490120     0.06950
Br3602     Br  0.07000477  0.54725213  0.96630692    -0.03660
C3603       C  0.03425352  0.59935303  0.89608124    -0.10290
C3604       C  0.01761457  0.58767775  0.88621629     0.05900
C3605       C  0.99610061  0.59442183  0.88957173    -0.04060
C3606       C  0.99140912  0.61073558  0.90463132    -0.08510
C3607       C  0.00802283  0.62130892  0.91580450     0.05020
C3608       C  0.02962309  0.61634296  0.91030785    -0.03530
Br3609     Br  0.05349310  0.63094361  0.92330114    -0.03230
H3610       H  0.05088806  0.59441987  0.89371910     0.08930
H3611       H  0.97471850  0.61408366  0.90872474     0.06950
Br3612     Br  0.97250662  0.58015435  0.87572891    -0.03660
C3613       C  0.92615633  0.62724289  0.98256942    -0.10290
C3614       C  0.94586017  0.62211840  0.99268146     0.05900
C3615       C  0.94538342  0.60639171  0.00931232    -0.04060
C3616       C  0.92581617  0.59853283  0.01687110    -0.08510
C3617       C  0.90724705  0.60046870  0.00437833     0.05020
C3618       C  0.90725922  0.61547138  0.98740501    -0.03530
Br3619     Br  0.88264605  0.61812913  0.96899008    -0.03230
H3620       H  0.92592350  0.63860608  0.96941313     0.08930
H3621       H  0.92629233  0.58629607  0.02926961     0.06950
Br3622     Br  0.96963586  0.58901326  0.01803905    -0.03660
C3623       C  0.03438707  0.59413803  0.07024337    -0.10290
C3624       C  0.01396936  0.58554366  0.07518097     0.05900
C3625       C  0.99537037  0.59679089  0.06855219    -0.04060
C3626       C  0.99750555  0.61485832  0.05520449    -0.08510
C3627       C  0.01791310  0.62154118  0.04798601     0.05020
C3628       C  0.03642450  0.61184669  0.05664700    -0.03530
Br3629     Br  0.06483567  0.62085722  0.04837704    -0.03230
H3630       H  0.04893754  0.58612878  0.07568027     0.08930
H3631       H  0.98312477  0.62249447  0.04887980     0.06950
Br3632     Br  0.96688242  0.58778782  0.07671476    -0.03660
C3633       C  0.95737184  0.30069760  0.02745780    -0.10290
C3634       C  0.93572042  0.30588452  0.02301917     0.05900
C3635       C  0.92974214  0.32780327  0.02279641    -0.04060
C3636       C  0.94550193  0.34375068  0.02392403    -0.08510
C3637       C  0.96758435  0.33859491  0.02461866     0.05020
C3638       C  0.97335396  0.31683125  0.02831927    -0.03530
Br3639     Br  0.00274681  0.30753101  0.03151860    -0.03230
H3640       H  0.96223271  0.28399160  0.02826039     0.08930
H3641       H  0.94043724  0.36033766  0.02219393     0.06950
Br3642     Br  0.90049625  0.33741542  0.01928736    -0.03660
C3643       C  0.06245333  0.27737170  0.83246224    -0.10290
C3644       C  0.06738596  0.26000781  0.84571038     0.05900
C3645       C  0.08837550  0.25128563  0.84489048    -0.04060
C3646       C  0.10348436  0.25939110  0.82983593    -0.08510
C3647       C  0.09768071  0.27614812  0.81571228     0.05020
C3648       C  0.07708041  0.28546441  0.81775834    -0.03530
Br3649     Br  0.06597541  0.30666244  0.79823569    -0.03230
H3650       H  0.04649922  0.28351057  0.83199734     0.08930
H3651       H  0.11890640  0.25141093  0.82788915     0.06950
Br3652     Br  0.09591591  0.22687159  0.86195083    -0.03660
C3653       C  0.91975312  0.25995577  0.83761273    -0.10290
C3654       C  0.93729052  0.24570278  0.83574760     0.05900
C3655       C  0.93716694  0.23026273  0.81902013    -0.04060
C3656       C  0.92126298  0.23088419  0.80332602    -0.08510
C3657       C  0.90553810  0.24698721  0.80344484     0.05020
C3658       C  0.90386100  0.26077168  0.82147278    -0.03530
Br3659     Br  0.88219588  0.28274976  0.82340342    -0.03230
H3660       H  0.91957457  0.27188174  0.85036883     0.08930
H3661       H  0.92227320  0.21975418  0.78987362     0.06950
Br3662     Br  0.95943761  0.20929778  0.81483415    -0.03660
C3663       C  0.97941371  0.31847435  0.82094411    -0.10290
C3664       C  0.99814057  0.31268030  0.83196316     0.05900
C3665       C  0.01687453  0.32525906  0.82951646    -0.04060
C3666       C  0.01769782  0.34098381  0.81336937    -0.08510
C3667       C  0.99929417  0.34565304  0.80103070     0.05020
C3668       C  0.97966162  0.33514984  0.80605253    -0.03530
Br3669     Br  0.95270691  0.34145769  0.79244533    -0.03230
H3670       H  0.96463834  0.30944099  0.82337155     0.08930
H3671       H  0.03255135  0.34978005  0.81067506     0.06950
Br3672     Br  0.04008295  0.32369325  0.84981714    -0.03660
C3673       C  0.02309224  0.17382624  0.83833508    -0.10290
C3674       C  0.00627290  0.18242463  0.85078508     0.05900
C3675       C  0.98549140  0.17337369  0.84889345    -0.04060
C3676       C  0.98077873  0.15949342  0.83176451    -0.08510
C3677       C  0.99697868  0.15362450  0.81720139     0.05020
C3678       C  0.01857908  0.15919520  0.82173396    -0.03530
Br3679     Br  0.04195291  0.14960744  0.80381353    -0.03230
H3680       H  0.03923360  0.18042556  0.83969802     0.08930
H3681       H  0.96417364  0.15488746  0.82874058     0.06950
Br3682     Br  0.96240703  0.18221804  0.86738679    -0.03660
C3683       C  0.93092130  0.22418217  0.94593028    -0.10290
C3684       C  0.93823137  0.23064191  0.96626147     0.05900
C3685       C  0.96057327  0.23296917  0.96977310    -0.04060
C3686       C  0.97504646  0.23066264  0.95249745    -0.08510
C3687       C  0.96738656  0.22673888  0.93157152     0.05020
C3688       C  0.94520775  0.22256848  0.92858766    -0.03530
Br3689     Br  0.93298576  0.21846894  0.90055762    -0.03230
H3690       H  0.91371239  0.22286795  0.94295183     0.08930
H3691       H  0.99191173  0.23465897  0.95492843     0.06950
Br3692     Br  0.97150366  0.24308773  0.99683926    -0.03660
C3693       C  0.00309592  0.29649881  0.94331038    -0.10290
C3694       C  0.01970574  0.29453814  0.92837348     0.05900
C3695       C  0.03785867  0.30809099  0.92996337    -0.04060
C3696       C  0.03846687  0.32427203  0.94600047    -0.08510
C3697       C  0.02078341  0.32731232  0.96000413     0.05020
C3698       C  0.00320346  0.31273689  0.95863754    -0.03530
Br3699     Br  0.97732448  0.31473731  0.97544757    -0.03230
H3700       H  0.98907492  0.28609250  0.94210197     0.08930
H3701       H  0.05193008  0.33537238  0.94646740     0.06950
Br3702     Br  0.06101985  0.30593491  0.90961539    -0.03660
C3703       C  0.33596748  0.68987657  0.95714565    -0.10290
C3704       C  0.33003799  0.67640945  0.97413945     0.05900
C3705       C  0.34102357  0.67826439  0.99390442    -0.04060
C3706       C  0.35598756  0.69491717  0.99716355    -0.08510
C3707       C  0.35969042  0.71023648  0.98104054     0.05020
C3708       C  0.35043392  0.70683918  0.96046476    -0.03530
Br3709     Br  0.35491899  0.72623399  0.93689037    -0.03230
H3710       H  0.32740633  0.68883168  0.94195949     0.08930
H3711       H  0.36285305  0.69721550  0.01304120     0.06950
Br3712     Br  0.33397183  0.65991164  0.01759419    -0.03660
C3713       C  0.32648139  0.83685088  0.01292615    -0.10290
C3714       C  0.34460869  0.83878806  0.99962156     0.05900
C3715       C  0.34610615  0.85727123  0.98639798    -0.04060
C3716       C  0.32831034  0.87121930  0.98457809    -0.08510
C3717       C  0.30885804  0.86682580  0.99534375     0.05020
C3718       C  0.30839708  0.84983144  0.01026909    -0.03530
Br3719     Br  0.28335662  0.84213979  0.02668916    -0.03230
H3720       H  0.32562518  0.82412352  0.02447291     0.08930
H3721       H  0.32922051  0.88470238  0.97362944     0.06950
Br3722     Br  0.37146123  0.86436963  0.97008936    -0.03660
C3723       C  0.45749031  0.81130809  0.02939052    -0.10290
C3724       C  0.43556020  0.81596840  0.02621517     0.05900
C3725       C  0.42786326  0.83677234  0.03119818    -0.04060
C3726       C  0.44249631  0.85344332  0.03457827    -0.08510
C3727       C  0.46470223  0.84943078  0.03410630     0.05020
C3728       C  0.47212947  0.82798519  0.03368778    -0.03530
Br3729     Br  0.50236166  0.82121031  0.03475183    -0.03230
H3730       H  0.46358344  0.79528070  0.02618115     0.08930
H3731       H  0.43660047  0.86983295  0.03555426     0.06950
Br3732     Br  0.39761097  0.84365870  0.03157631    -0.03660
C3733       C  0.02766575  0.70471250  0.32334453    -0.10290
C3734       C  0.01137919  0.71575869  0.33450246     0.05900
C3735       C  0.98974163  0.70979214  0.33078984    -0.04060
C3736       C  0.98455597  0.69577655  0.31374431    -0.08510
C3737       C  0.00089258  0.68655752  0.30101166     0.05020
C3738       C  0.02260719  0.69014801  0.30681746    -0.03530
Br3739     Br  0.04598780  0.67784003  0.29076016    -0.03230
H3740       H  0.04439186  0.70857585  0.32641310     0.08930
H3741       H  0.96776033  0.69293760  0.30978619     0.06950
Br3742     Br  0.96685126  0.72141225  0.34796882    -0.03660
C3743       C  0.98549965  0.86574715  0.29285723    -0.10290
C3744       C  0.00225280  0.88072059  0.29459905     0.05900
C3745       C  0.01541639  0.88074150  0.31304229    -0.04060
C3746       C  0.01325018  0.86407971  0.32816132    -0.08510
C3747       C  0.99800891  0.84762080  0.32486366     0.05020
C3748       C  0.98329439  0.84930260  0.30768661    -0.03530
Br3749     Br  0.96079855  0.82869692  0.30253071    -0.03230
H3750       H  0.97496275  0.86590228  0.27892174     0.08930
H3751       H  0.02447370  0.86310082  0.34149512     0.06950
Br3752     Br  0.03729402  0.90203391  0.31725873    -0.03660
C3753       C  0.04029341  0.84611867  0.40316525    -0.10290
C3754       C  0.04146841  0.82472208  0.41004204     0.05900
C3755       C  0.04790730  0.82028789  0.43122267    -0.04060
C3756       C  0.05035390  0.83724293  0.44592536    -0.08510
C3757       C  0.04579475  0.85855569  0.43982265     0.05020
C3758       C  0.04263711  0.86305608  0.41778778    -0.03530
Br3759     Br  0.03982208  0.89179004  0.40689752    -0.03230
H3760       H  0.03576431  0.84963619  0.38669544     0.08930
H3761       H  0.05314744  0.83340562  0.46268765     0.06950
Br3762     Br  0.04966362  0.79136691  0.44164447    -0.03660
C3763       C  0.19152422  0.74797614  0.27187942    -0.10290
C3764       C  0.19405269  0.76134733  0.25384897     0.05900
C3765       C  0.21224656  0.75842652  0.24041629    -0.04060
C3766       C  0.22701206  0.74221954  0.24470929    -0.08510
C3767       C  0.22359132  0.72774029  0.26144886     0.05020
C3768       C  0.20595703  0.73083273  0.27543335    -0.03530
Br3769     Br  0.20047396  0.71131144  0.29851696    -0.03230
H3770       H  0.17741005  0.74969690  0.28206774     0.08930
H3771       H  0.24014577  0.73960037  0.23348155     0.06950
Br3772     Br  0.21673190  0.77401154  0.21421922    -0.03660
C3773       C  0.10771620  0.88110781  0.25138025    -0.10290
C3774       C  0.11633629  0.87062996  0.23333800     0.05900
C3775       C  0.11018019  0.87758744  0.21265765    -0.04060
C3776       C  0.09293103  0.89199786  0.21031162    -0.08510
C3777       C  0.08177583  0.89948354  0.22848949     0.05020
C3778       C  0.09052393  0.89553301  0.24905532    -0.03530
Br3779     Br  0.07748779  0.90716526  0.27454674    -0.03230
H3780       H  0.11230632  0.87596414  0.26738273     0.08930
H3781       H  0.08652142  0.89499179  0.19437521     0.06950
Br3782     Br  0.12212151  0.86449668  0.18728988    -0.03660
C3783       C  0.08450681  0.80660899  0.32668113    -0.10290
C3784       C  0.07532036  0.78592153  0.32717711     0.05900
C3785       C  0.08295463  0.77025688  0.31266322    -0.04060
C3786       C  0.09817015  0.77573882  0.29703791    -0.08510
C3787       C  0.10594569  0.79683086  0.29531288     0.05020
C3788       C  0.09989722  0.81209342  0.31096075    -0.03530
Br3789     Br  0.10996707  0.84117556  0.30962035    -0.03230
H3790       H  0.07846306  0.81897457  0.33744942     0.08930
H3791       H  0.10251104  0.76391180  0.28491181     0.06950
Br3792     Br  0.07048563  0.74222109  0.31091129    -0.03660
C3793       C  0.08181152  0.70356285  0.22581265    -0.10290
C3794       C  0.06206945  0.70862363  0.23609287     0.05900
C3795       C  0.06009269  0.72887062  0.24643003    -0.04060
C3796       C  0.07682866  0.74369282  0.24498371    -0.08510
C3797       C  0.09557008  0.73944258  0.23297239     0.05020
C3798       C  0.09849324  0.71878660  0.22413685    -0.03530
Br3799     Br  0.12380765  0.71118807  0.20798673    -0.03230
H3800       H  0.08391159  0.68807936  0.21804878     0.08930
H3801       H  0.07451989  0.75940633  0.25225481     0.06950
Br3802     Br  0.03453355  0.73907797  0.26097338    -0.03660
C3803       C  0.08074460  0.79764932  0.13216980    -0.10290
C3804       C  0.06283699  0.78508056  0.13822624     0.05900
C3805       C  0.06262114  0.77542173  0.15885923    -0.04060
C3806       C  0.07907878  0.77947898  0.17316068    -0.08510
C3807       C  0.09598446  0.79309588  0.16785027     0.05020
C3808       C  0.09744419  0.80172900  0.14701971    -0.03530
Br3809     Br  0.12150156  0.81911874  0.13863089    -0.03230
H3810       H  0.08121291  0.80511284  0.11645414     0.08930
H3811       H  0.07828266  0.77231129  0.18901284     0.06950
Br3812     Br  0.04008641  0.75731611  0.17001724    -0.03660
C3813       C  0.97041858  0.71547468  0.02642773    -0.10290
C3814       C  0.98875944  0.71513674  0.01299055     0.05900
C3815       C  0.00251345  0.73327690  0.01303682    -0.04060
C3816       C  0.99841162  0.75060639  0.02663998    -0.08510
C3817       C  0.98139589  0.75023512  0.04138699     0.05020
C3818       C  0.96702800  0.73265701  0.04101202    -0.03530
Br3819     Br  0.94419787  0.73060025  0.06170714    -0.03230
H3820       H  0.95988203  0.70159621  0.02699568     0.08930
H3821       H  0.01033118  0.76332092  0.02759187     0.06950
Br3822     Br  0.02900576  0.73468771  0.99717100    -0.03660
C3823       C  0.01452362  0.86826258  0.12967424    -0.10290
C3824       C  0.99604212  0.85526763  0.13225265     0.05900
C3825       C  0.98281873  0.85899102  0.15041984    -0.04060
C3826       C  0.98872162  0.87427105  0.16601156    -0.08510
C3827       C  0.00789395  0.88617773  0.16421818     0.05020
C3828       C  0.02037566  0.88371850  0.14538315    -0.03530
Br3829     Br  0.04642640  0.89983596  0.14152239    -0.03230
H3830       H  0.02531034  0.86528553  0.11624773     0.08930
H3831       H  0.97891831  0.87581940  0.18037650     0.06950
Br3832     Br  0.95800672  0.84150277  0.15632802    -0.03660
C3833       C  0.02299994  0.71621222  0.14102922    -0.10290
C3834       C  0.00266933  0.72441647  0.13528008     0.05900
C3835       C  0.98399984  0.71436599  0.14325001    -0.04060
C3836       C  0.98581631  0.69973202  0.16017344    -0.08510
C3837       C  0.00622198  0.69409680  0.16812626     0.05020
C3838       C  0.02490227  0.70126192  0.15756035    -0.03530
Br3839     Br  0.05333290  0.69364282  0.16724851    -0.03230
H3840       H  0.03759831  0.72307205  0.13430433     0.08930
H3841       H  0.97134779  0.69329980  0.16757360     0.06950
Br3842     Br  0.95642564  0.71832105  0.12998522    -0.03660
C3843       C  0.04600929  0.80798847  0.00547122    -0.10290
C3844       C  0.06772674  0.81041479  0.01161043     0.05900
C3845       C  0.07207002  0.81830428  0.03242381    -0.04060
C3846       C  0.05544872  0.82108422  0.04742508    -0.08510
C3847       C  0.03407053  0.81620004  0.04214174     0.05020
C3848       C  0.02922183  0.81101814  0.02054021    -0.03530
Br3849     Br  0.00003336  0.80606049  0.01160413    -0.03230
H3850       H  0.04215818  0.80234685  0.98941592     0.08930
H3851       H  0.05954546  0.82495313  0.06395780     0.06950
Br3852     Br  0.10044947  0.82438000  0.04187651    -0.03660
C3853       C  0.08394790  0.72104104  0.94647035    -0.10290
C3854       C  0.07522838  0.74182262  0.94796958     0.05900
C3855       C  0.05271157  0.74445537  0.94586239    -0.04060
C3856       C  0.03927250  0.72623489  0.94604729    -0.08510
C3857       C  0.04809604  0.70562097  0.94919481     0.05020
C3858       C  0.07065702  0.70299858  0.94720512    -0.03530
Br3859     Br  0.08455220  0.67538617  0.94796259    -0.03230
H3860       H  0.10130858  0.71877608  0.94713837     0.08930
H3861       H  0.02193793  0.72853207  0.94689523     0.06950
Br3862     Br  0.03933426  0.77225902  0.94681038    -0.03660
C3863       C  0.15241893  0.86991495  0.96251586    -0.10290
C3864       C  0.14617324  0.85558811  0.97877342     0.05900
C3865       C  0.15260141  0.85993793  0.00018659    -0.04060
C3866       C  0.16633992  0.87699371  0.00464993    -0.08510
C3867       C  0.17584473  0.88847835  0.98798223     0.05020
C3868       C  0.16767559  0.88607169  0.96694676    -0.03530
Br3869     Br  0.17966543  0.90176553  0.94338488    -0.03230
H3870       H  0.14799724  0.86665972  0.94595171     0.08930
H3871       H  0.17256537  0.87879762  0.02081761     0.06950
Br3872     Br  0.14826576  0.84025818  0.02335448    -0.03660
C3873       C  0.16528497  0.70896119  0.97842064    -0.10290
C3874       C  0.16924082  0.72773278  0.96648448     0.05900
C3875       C  0.18822067  0.72868203  0.95370833    -0.04060
C3876       C  0.20332237  0.71218298  0.95479830    -0.08510
C3877       C  0.20061699  0.69465530  0.96869693     0.05020
C3878       C  0.18066009  0.69243121  0.97956600    -0.03530
Br3879     Br  0.17328150  0.66779833  0.99658946    -0.03230
H3880       H  0.15057209  0.70751050  0.98775998     0.08930
H3881       H  0.21807951  0.71392766  0.94557090     0.06950
Br3882     Br  0.19665179  0.75256606  0.93592581    -0.03660
C3883       C  0.18394934  0.82412361  0.16832555    -0.10290
C3884       C  0.18963932  0.82430686  0.19022529     0.05900
C3885       C  0.21165863  0.82577984  0.19582961    -0.04060
C3886       C  0.22725537  0.82131929  0.18010500    -0.08510
C3887       C  0.22086661  0.81629295  0.15903423     0.05020
C3888       C  0.19944750  0.81976746  0.15270786    -0.03530
Br3889     Br  0.19042429  0.81657051  0.12335869    -0.03230
H3890       H  0.16708704  0.82431090  0.16363554     0.08930
H3891       H  0.24403991  0.81969632  0.18478256     0.06950
Br3892     Br  0.22121160  0.83048553  0.22486284    -0.03660
C3893       C  0.28890893  0.71280125  0.18406962    -0.10290
C3894       C  0.28706793  0.72172334  0.20470525     0.05900
C3895       C  0.28665178  0.74412166  0.20735054    -0.04060
C3896       C  0.28495798  0.75721996  0.18923299    -0.08510
C3897       C  0.28351879  0.74798771  0.16862740     0.05020
C3898       C  0.28716503  0.72578399  0.16596484    -0.03530
Br3899     Br  0.28817054  0.71217573  0.13814878    -0.03230
H3900       H  0.28936953  0.69548359  0.18202224     0.08930
H3901       H  0.28260362  0.77435526  0.19141727     0.06950
Br3902     Br  0.28529178  0.75709126  0.23535391    -0.03660
C3903       C  0.18152231  0.78004853  0.07095450    -0.10290
C3904       C  0.20222644  0.77270249  0.06519948     0.05900
C3905       C  0.20547583  0.76472178  0.04405349    -0.04060
C3906       C  0.18928778  0.76669267  0.02883357    -0.08510
C3907       C  0.16929506  0.77605501  0.03379781     0.05020
C3908       C  0.16493227  0.78141805  0.05549711    -0.03530
Br3909     Br  0.13719351  0.79066878  0.06514327    -0.03230
H3910       H  0.17838436  0.78529605  0.08728720     0.08930
H3911       H  0.19260630  0.76099582  0.01264203     0.06950
Br3912     Br  0.23140367  0.75067471  0.03403796    -0.03660
C3913       C  0.23510235  0.85121899  0.07976387    -0.10290
C3914       C  0.25721448  0.84863801  0.08401403     0.05900
C3915       C  0.27180400  0.86461197  0.07745965    -0.04060
C3916       C  0.26450502  0.88108343  0.06397210    -0.08510
C3917       C  0.24290406  0.88159746  0.05693869     0.05020
C3918       C  0.22787078  0.86763401  0.06635262    -0.03530
Br3919     Br  0.19810320  0.86769727  0.05808999    -0.03230
H3920       H  0.22369534  0.83914212  0.08511288     0.08930
H3921       H  0.27628878  0.89162766  0.05658563     0.06950
Br3922     Br  0.30224135  0.86219931  0.08276948    -0.03660
C3923       C  0.33401739  0.80251545  0.07005560    -0.10290
C3924       C  0.33257613  0.79180184  0.08972205     0.05900
C3925       C  0.34770884  0.77524428  0.09383848    -0.04060
C3926       C  0.36132345  0.76817092  0.07690217    -0.08510
C3927       C  0.35654071  0.77473788  0.05575626     0.05020
C3928       C  0.33995429  0.78987915  0.05276880    -0.03530
Br3929     Br  0.31599356  0.78333861  0.03389119    -0.03230
H3930       H  0.32244359  0.81522180  0.06678217     0.08930
H3931       H  0.37328963  0.75578869  0.07970014     0.06950
Br3932     Br  0.34784972  0.76010970  0.12059001    -0.03660
C3933       C  0.24263157  0.70788028  0.06947929    -0.10290
C3934       C  0.26269103  0.71785765  0.07346887     0.05900
C3935       C  0.28098065  0.71057206  0.06196062    -0.04060
C3936       C  0.27854388  0.69534261  0.04543863    -0.08510
C3937       C  0.25814651  0.68696530  0.04020791     0.05020
C3938       C  0.24020736  0.69283639  0.05279833    -0.03530
Br3939     Br  0.21160211  0.68338403  0.04562038    -0.03230
H3940       H  0.22828160  0.71333024  0.07788710     0.08930
H3941       H  0.29247419  0.69091149  0.03580518     0.06950
Br3942     Br  0.30950353  0.72133888  0.06754960    -0.03660
C3943       C  0.23629348  0.69544697  0.88732838    -0.10290
C3944       C  0.25242762  0.70793244  0.87759285     0.05900
C3945       C  0.27425962  0.70285348  0.88161520    -0.04060
C3946       C  0.27959891  0.68720453  0.89691180    -0.08510
C3947       C  0.26344258  0.67596911  0.90801431     0.05020
C3948       C  0.24167252  0.67931318  0.90217477    -0.03530
Br3949     Br  0.21861668  0.66446596  0.91642711    -0.03230
H3950       H  0.21945089  0.69942738  0.88476038     0.08930
H3951       H  0.29636378  0.68513298  0.90148480     0.06950
Br3952     Br  0.29729088  0.71929388  0.86913012    -0.03660
C3953       C  0.23316169  0.84115962  0.90225951    -0.10290
C3954       C  0.25227945  0.84025419  0.89025611     0.05900
C3955       C  0.26875318  0.85518902  0.89447533    -0.04060
C3956       C  0.26656852  0.86954493  0.91178813    -0.08510
C3957       C  0.24844758  0.86868839  0.92555536     0.05020
C3958       C  0.23121217  0.85473293  0.92002478    -0.03530
Br3959     Br  0.20547819  0.85090088  0.93689673    -0.03230
H3960       H  0.22049190  0.82950883  0.89917365     0.08930
H3961       H  0.27999404  0.88005635  0.91556247     0.06950
Br3962     Br  0.29579466  0.85424198  0.87939880    -0.03660
C3963       C  0.33348445  0.77578812  0.89701138    -0.10290
C3964       C  0.31209823  0.78050654  0.90310911     0.05900
C3965       C  0.30807409  0.79170100  0.92229512    -0.04060
C3966       C  0.32512350  0.79741188  0.93530625    -0.08510
C3967       C  0.34619051  0.79014615  0.93098594     0.05020
C3968       C  0.35064538  0.78015060  0.91112866    -0.03530
Br3969     Br  0.37928164  0.77181973  0.90290723    -0.03230
H3970       H  0.33672135  0.76837019  0.88152970     0.08930
H3971       H  0.32148054  0.80592717  0.95015152     0.06950
Br3972     Br  0.27973553  0.79944782  0.93227001    -0.03660
C3973       C  0.17897486  0.80101592  0.87829125    -0.10290
C3974       C  0.18431359  0.77936172  0.87434443     0.05900
C3975       C  0.17135844  0.76332797  0.88381440    -0.04060
C3976       C  0.15504279  0.76905528  0.89865001    -0.08510
C3977       C  0.15155881  0.79068184  0.90447196     0.05020
C3978       C  0.16291769  0.80670265  0.89323601    -0.03530
Br3979     Br  0.15867778  0.83657328  0.89971243    -0.03230
H3980       H  0.18892864  0.81360018  0.87147141     0.08930
H3981       H  0.14682424  0.75646625  0.90744539     0.06950
Br3982     Br  0.17805312  0.73344217  0.88000939    -0.03660
C3983       C  0.22593065  0.82825686  0.79341193    -0.10290
C3984       C  0.24389507  0.81439307  0.79432098     0.05900
C3985       C  0.26170724  0.81839046  0.78054033    -0.04060
C3986       C  0.26202466  0.83648029  0.76765500    -0.08510
C3987       C  0.24495815  0.85100757  0.76783871     0.05020
C3988       C  0.22637670  0.84658814  0.78011990    -0.03530
Br3989     Br  0.20214675  0.86573209  0.77996103    -0.03230
H3990       H  0.21231411  0.82572396  0.80406471     0.08930
H3991       H  0.27620403  0.83967483  0.75789825     0.06950
Br3992     Br  0.28744999  0.80117221  0.77965463    -0.03660
C3993       C  0.89778089  0.78817746  0.14694584    -0.10290
C3994       C  0.90387582  0.77335716  0.16308944     0.05900
C3995       C  0.92403467  0.76262289  0.16057343    -0.04060
C3996       C  0.93745385  0.76755528  0.14355272    -0.08510
C3997       C  0.93273724  0.78361350  0.12875528     0.05020
C3998       C  0.91226075  0.79355266  0.12996386    -0.03530
Br3999     Br  0.90454993  0.81567965  0.11013160    -0.03230
H4000       H  0.88269526  0.79687508  0.14850515     0.08930
H4001       H  0.95327781  0.76046170  0.14359241     0.06950
Br4002     Br  0.93740286  0.74342870  0.18110453    -0.03660
C4003       C  0.90366950  0.70024883  0.24730774    -0.10290
C4004       C  0.89868601  0.70826868  0.22677577     0.05900
C4005       C  0.90787918  0.69811543  0.20869719    -0.04060
C4006       C  0.92550201  0.68421740  0.21152370    -0.08510
C4007       C  0.93301543  0.67916982  0.23228229     0.05020
C4008       C  0.92061180  0.68558871  0.25017333    -0.03530
Br4009     Br  0.92858494  0.67810320  0.27903748    -0.03230
H4010       H  0.89608786  0.70732390  0.26138282     0.08930
H4011       H  0.93441633  0.67873904  0.19751514     0.06950
Br4012     Br  0.89841307  0.70439848  0.18001554    -0.03660
C4013       C  0.94259248  0.82971375  0.22928640    -0.10290
C4014       C  0.92104328  0.83582780  0.23280974     0.05900
C4015       C  0.91628592  0.85770525  0.23643449    -0.04060
C4016       C  0.93312367  0.87291679  0.23614242    -0.08510
C4017       C  0.95465336  0.86656785  0.23224726     0.05020
C4018       C  0.95923248  0.84455917  0.22915176    -0.03530
Br4019     Br  0.98788830  0.83274388  0.22668406    -0.03230
H4020       H  0.94680135  0.81290390  0.22726881     0.08930
H4021       H  0.92938155  0.88971846  0.23886763     0.06950
Br4022     Br  0.88731234  0.86766465  0.24093168    -0.03660
C4023       C  0.91059294  0.79042750  0.31266332    -0.10290
C4024       C  0.91265412  0.77562254  0.29566799     0.05900
C4025       C  0.92866338  0.75964629  0.29679525    -0.04060
C4026       C  0.94388759  0.76033580  0.31298784    -0.08510
C4027       C  0.94417718  0.77713976  0.32807091     0.05020
C4028       C  0.92626545  0.79130957  0.32899312    -0.03530
Br4029     Br  0.92320047  0.81339530  0.35045877    -0.03230
H4030       H  0.89799699  0.80252387  0.31220435     0.08930
H4031       H  0.95695791  0.74879688  0.31217325     0.06950
Br4032     Br  0.93263349  0.73774346  0.27545700    -0.03660
C4033       C  0.97114893  0.81233359  0.49557529    -0.10290
C4034       C  0.95951433  0.81266017  0.51486698     0.05900
C4035       C  0.96424564  0.82823235  0.53058764    -0.04060
C4036       C  0.97995569  0.84391124  0.52629480    -0.08510
C4037       C  0.99013513  0.84459430  0.50606794     0.05020
C4038       C  0.98600729  0.82829690  0.49088069    -0.03530
Br4039     Br  0.99861309  0.82789574  0.46266440    -0.03230
H4040       H  0.96715616  0.80077113  0.48312939     0.08930
H4041       H  0.98296930  0.85647592  0.53803031     0.06950
Br4042     Br  0.94839954  0.82955161  0.55704041    -0.03660
C4043       C  0.94192661  0.75063716  0.43708675    -0.10290
C4044       C  0.95108686  0.75241445  0.45761891     0.05900
C4045       C  0.97368344  0.75443830  0.45940650    -0.04060
C4046       C  0.98642716  0.75684788  0.44081131    -0.08510
C4047       C  0.97682560  0.75764082  0.42031097     0.05020
C4048       C  0.95447042  0.75326696  0.41855124    -0.03530
Br4049     Br  0.93962773  0.75248725  0.39141897    -0.03230
H4050       H  0.92452977  0.74937020  0.43547618     0.08930
H4051       H  0.00352883  0.76010376  0.44256263     0.06950
Br4052     Br  0.98733539  0.75668598  0.48699797    -0.03660
C4053       C  0.51489236  0.81450071  0.95290379    -0.10290
C4054       C  0.53250246  0.81658915  0.93885506     0.05900
C4055       C  0.54680632  0.83396677  0.94159814    -0.04060
C4056       C  0.54246062  0.84960643  0.95748308    -0.08510
C4057       C  0.52351330  0.84841439  0.96994074     0.05020
C4058       C  0.50972187  0.83067806  0.96745838    -0.03530
Br4059     Br  0.48158191  0.82951087  0.98021182    -0.03230
H4060       H  0.50337471  0.80156970  0.95049828     0.08930
H4061       H  0.55304015  0.86338148  0.95910697     0.06950
Br4062     Br  0.57059303  0.83828772  0.92235942    -0.03660
C4063       C  0.47992762  0.75499602  0.94305892    -0.10290
C4064       C  0.47445059  0.75718923  0.92121214     0.05900
C4065       C  0.45251935  0.75547551  0.91509035    -0.04060
C4066       C  0.43654734  0.75469402  0.93092120    -0.08510
C4067       C  0.44202413  0.75531487  0.95275760     0.05020
C4068       C  0.46383059  0.75422773  0.95885169    -0.03530
Br4069     Br  0.47228343  0.75518078  0.98852265    -0.03230
H4070       H  0.49664122  0.75617190  0.94809722     0.08930
H4071       H  0.41971951  0.75532606  0.92620060     0.06950
Br4072     Br  0.44313251  0.75586543  0.88557377    -0.03660
C4073       C  0.50853630  0.86919603  0.84871956    -0.10290
C4074       C  0.52527200  0.85400195  0.84811483     0.05900
C4075       C  0.54425627  0.85873446  0.83668327    -0.04060
C4076       C  0.54459141  0.87613455  0.82277274    -0.08510
C4077       C  0.52603183  0.88875608  0.81984623     0.05020
C4078       C  0.50898818  0.88693614  0.83489397    -0.03530
Br4079     Br  0.48529770  0.90684879  0.83628412    -0.03230
H4080       H  0.49427382  0.86626756  0.85839601     0.08930
H4081       H  0.55855088  0.87821364  0.81246008     0.06950
Br4082     Br  0.56944042  0.84091129  0.83789702    -0.03660
C4083       C  0.44882531  0.87956786  0.73778214    -0.10290
C4084       C  0.45839387  0.88003484  0.75819112     0.05900
C4085       C  0.45064808  0.86632289  0.77433129    -0.04060
C4086       C  0.43368822  0.85230133  0.76980200    -0.08510
C4087       C  0.42529313  0.85055721  0.74886177     0.05020
C4088       C  0.43294891  0.86443577  0.73273932    -0.03530
Br4089     Br  0.42430561  0.86207060  0.70321525    -0.03230
H4090       H  0.45554627  0.88916238  0.72495108     0.08930
H4091       H  0.42846782  0.84127004  0.78223001     0.06950
Br4092     Br  0.46396439  0.86460302  0.80208740    -0.03660
C4093       C  0.44797138  0.77055417  0.79463428    -0.10290
C4094       C  0.42974034  0.78339345  0.79839779     0.05900
C4095       C  0.42835054  0.79544339  0.81748084    -0.04060
C4096       C  0.44594008  0.79576017  0.83162153    -0.08510
C4097       C  0.46524099  0.78463466  0.82673311     0.05020
C4098       C  0.46581979  0.77135522  0.80817806    -0.03530
Br4099     Br  0.49073694  0.75557225  0.79837626    -0.03230
H4100       H  0.44910874  0.76124980  0.77986824     0.08930
H4101       H  0.44489750  0.80579899  0.84586849     0.06950
Br4102     Br  0.40414756  0.81375936  0.82358142    -0.03660
C4103       C  0.31545664  0.74925439  0.76828771    -0.10290
C4104       C  0.33671170  0.75236723  0.77549353     0.05900
C4105       C  0.34100723  0.75100576  0.79765297    -0.04060
C4106       C  0.32395560  0.74994332  0.81233424    -0.08510
C4107       C  0.30234361  0.75036296  0.80534646     0.05020
C4108       C  0.29823828  0.74786918  0.78303717    -0.03530
Br4109     Br  0.26958409  0.74580270  0.77138382    -0.03230
H4110       H  0.31196114  0.75009055  0.75122554     0.08930
H4111       H  0.32763008  0.75089803  0.82936517     0.06950
Br4112     Br  0.36985086  0.75310853  0.80872676    -0.03660
C4113       C  0.31210369  0.81611088  0.71230197    -0.10290
C4114       C  0.33384352  0.82241573  0.71334366     0.05900
C4115       C  0.33929151  0.84379422  0.70817512    -0.04060
C4116       C  0.32309867  0.85899746  0.70476955    -0.08510
C4117       C  0.30132398  0.85328420  0.70632150     0.05020
C4118       C  0.29581514  0.83145234  0.70886391    -0.03530
Br4119     Br  0.26627437  0.82245930  0.71081972    -0.03230
H4120       H  0.30763639  0.79972607  0.71612291     0.08930
H4121       H  0.32751712  0.87575097  0.70290803     0.06950
Br4122     Br  0.36855862  0.85356187  0.70721055    -0.03660
C4123       C  0.62149264  0.79675500  0.83260729    -0.10290
C4124       C  0.61721867  0.78482051  0.81371009     0.05900
C4125       C  0.60037548  0.76921736  0.81463689    -0.04060
C4126       C  0.58944491  0.76538661  0.83378123    -0.08510
C4127       C  0.59150240  0.77919727  0.85133685     0.05020
C4128       C  0.60811473  0.79468424  0.85096469    -0.03530
Br4129     Br  0.61182206  0.81413286  0.87460854    -0.03230
H4130       H  0.63388495  0.80903147  0.83248780     0.08930
H4131       H  0.57620143  0.75403485  0.83347842     0.06950
Br4132     Br  0.58677250  0.75568483  0.79025777    -0.03660
C4133       C  0.62051658  0.86991774  0.73692137    -0.10290
C4134       C  0.62331773  0.86061945  0.75737742     0.05900
C4135       C  0.61140014  0.86923405  0.77470056    -0.04060
C4136       C  0.59556693  0.88507573  0.77113500    -0.08510
C4137       C  0.59111406  0.89274970  0.75031992     0.05020
C4138       C  0.60457973  0.88580485  0.73333246    -0.03530
Br4139     Br  0.59962131  0.89546396  0.70449838    -0.03230
H4140       H  0.62918037  0.86329548  0.72325845     0.08930
H4141       H  0.58526294  0.88990902  0.78440265     0.06950
Br4142     Br  0.61456879  0.85781414  0.80312456    -0.03660
C4143       C  0.56624076  0.49286117  0.69839487    -0.10290
C4144       C  0.57347859  0.51137297  0.70933127     0.05900
C4145       C  0.56376115  0.53132947  0.70457456    -0.04060
C4146       C  0.54832260  0.53279576  0.68860697    -0.08510
C4147       C  0.54217933  0.51489455  0.67644665     0.05020
C4148       C  0.55050677  0.49450178  0.68197446    -0.03530
Br4149     Br  0.54225098  0.46906996  0.66658028    -0.03230
H4150       H  0.57359515  0.47743574  0.70177065     0.08930
H4151       H  0.54157930  0.54849785  0.68509713     0.06950
Br4152     Br  0.57137205  0.55804091  0.71802015    -0.03660
C4153       C  0.46347685  0.70847422  0.72240678    -0.10290
C4154       C  0.46154612  0.69370323  0.73940493     0.05900
C4155       C  0.44144260  0.69244500  0.75022709    -0.04060
C4156       C  0.42498169  0.70750708  0.74551958    -0.08510
C4157       C  0.42820807  0.72356184  0.72993553     0.05020
C4158       C  0.44742732  0.72334251  0.71789025    -0.03530
Br4159     Br  0.45426506  0.74495979  0.69696070    -0.03230
H4160       H  0.47840677  0.70974893  0.71341027     0.08930
H4161       H  0.41035298  0.70764855  0.75510363     0.06950
Br4162     Br  0.43599375  0.67181562  0.77237930    -0.03660
C4163       C  0.53897722  0.68965006  0.82490824    -0.10290
C4164       C  0.51856412  0.68744956  0.81528440     0.05900
C4165       C  0.50143887  0.70041235  0.82275036    -0.04060
C4166       C  0.50528494  0.71649963  0.83810289    -0.08510
C4167       C  0.52617301  0.72015622  0.84599290     0.05020
C4168       C  0.54287514  0.70594326  0.84013566    -0.03530
Br4169     Br  0.57152776  0.70944590  0.85121516    -0.03230
H4170       H  0.55238378  0.68002826  0.81911108     0.08930
H4171       H  0.49230370  0.72739479  0.84246150     0.06950
Br4172     Br  0.47320571  0.69861638  0.81024071    -0.03660
C4173       C  0.60003365  0.69813894  0.72437051    -0.10290
C4174       C  0.59175630  0.69317665  0.74485735     0.05900
C4175       C  0.60036359  0.70366738  0.76305208    -0.04060
C4176       C  0.61487145  0.72064018  0.76026426    -0.08510
C4177       C  0.62028271  0.72771915  0.73960103     0.05020
C4178       C  0.61407746  0.71551363  0.72164278    -0.03530
Br4179     Br  0.62280523  0.72334235  0.69313314    -0.03230
H4180       H  0.59397747  0.68990615  0.71022179     0.08930
H4181       H  0.62081649  0.72929072  0.77420013     0.06950
Br4182     Br  0.59187514  0.69627069  0.79180569    -0.03660
C4183       C  0.48535552  0.61137599  0.69118602    -0.10290
C4184       C  0.49537627  0.60420675  0.71011453     0.05900
C4185       C  0.49980872  0.58216227  0.71244060    -0.04060
C4186       C  0.49542058  0.56787117  0.69565090    -0.08510
C4187       C  0.48743696  0.57530500  0.67594792     0.05020
C4188       C  0.48153500  0.59709673  0.67403464    -0.03530
Br4189     Br  0.46909357  0.60803980  0.64804701    -0.03230
H4190       H  0.48200455  0.62833215  0.68911184     0.08930
H4191       H  0.50028051  0.55120909  0.69729236     0.06950
Br4192     Br  0.51401961  0.57105321  0.73728018    -0.03660
C4193       C  0.54958622  0.58115356  0.77886307    -0.10290
C4194       C  0.55915443  0.60150886  0.77636558     0.05900
C4195       C  0.58185297  0.60305441  0.77824674    -0.04060
C4196       C  0.59447096  0.58441597  0.77854524    -0.08510
C4197       C  0.58497823  0.56398032  0.77728149     0.05020
C4198       C  0.56233629  0.56236674  0.77885153    -0.03530
Br4199     Br  0.54817563  0.53502221  0.77731058    -0.03230
H4200       H  0.53218675  0.57966483  0.77853124     0.08930
H4201       H  0.61189147  0.58595048  0.77766276     0.06950
Br4202     Br  0.59670908  0.63018357  0.77873334    -0.03660
C4203       C  0.59580573  0.72149110  0.47051755    -0.10290
C4204       C  0.59180055  0.74337394  0.46786876     0.05900
C4205       C  0.57136999  0.74999891  0.46039891    -0.04060
C4206       C  0.55408695  0.73526928  0.46034981    -0.08510
C4207       C  0.55758406  0.71377920  0.46636811     0.05020
C4208       C  0.57906702  0.70666528  0.46915276    -0.03530
Br4209     Br  0.58676948  0.67708549  0.47196079    -0.03230
H4210       H  0.61175326  0.71607642  0.47528917     0.08930
H4211       H  0.53785558  0.74091457  0.45711923     0.06950
Br4212     Br  0.56638460  0.77903123  0.45141740    -0.03660
C4213       C  0.43823885  0.77123205  0.64276557    -0.10290
C4214       C  0.44732569  0.79166561  0.63994766     0.05900
C4215       C  0.43634758  0.80981581  0.64792346    -0.04060
C4216       C  0.41853771  0.80710740  0.66147580    -0.08510
C4217       C  0.41137492  0.78644136  0.66693735     0.05020
C4218       C  0.41994129  0.76862143  0.65581526    -0.03530
Br4219     Br  0.40922289  0.74017224  0.66085991    -0.03230
H4220       H  0.44634429  0.75717139  0.63630037     0.08930
H4221       H  0.41202599  0.82099447  0.66985338     0.06950
Br4222     Br  0.44662913  0.83839564  0.64277818    -0.03660
C4223       C  0.49641001  0.85251464  0.67011711    -0.10290
C4224       C  0.50942586  0.85451848  0.65197913     0.05900
C4225       C  0.52543170  0.87065335  0.65184735    -0.04060
C4226       C  0.52827506  0.88414226  0.67001302    -0.08510
C4227       C  0.51648770  0.88058283  0.68912349     0.05020
C4228       C  0.50048082  0.86413697  0.68878583    -0.03530
Br4229     Br  0.48579287  0.85269798  0.71342981    -0.03230
H4230       H  0.48501239  0.83930337  0.67092951     0.08930
H4231       H  0.54091822  0.89616210  0.66977081     0.06950
Br4232     Br  0.54498068  0.87327841  0.62816295    -0.03660
C4233       C  0.50997962  0.71289977  0.65829837    -0.10290
C4234       C  0.52769274  0.72627241  0.65383678     0.05900
C4235       C  0.54802584  0.72121963  0.66276540    -0.04060
C4236       C  0.55003038  0.70409733  0.67695633    -0.08510
C4237       C  0.53212178  0.69170173  0.68258779     0.05020
C4238       C  0.51218578  0.69545566  0.67240734    -0.03530
Br4239     Br  0.48737855  0.67818932  0.67870557    -0.03230
H4240       H  0.49430619  0.71646700  0.65142149     0.08930
H4241       H  0.56527934  0.70164949  0.68515233     0.06950
Br4242     Br  0.57300522  0.73896986  0.65930537    -0.03660
C4243       C  0.57850667  0.81355981  0.66698460    -0.10290
C4244       C  0.58130590  0.79848528  0.65047663     0.05900
C4245       C  0.60123222  0.78780309  0.64845319    -0.04060
C4246       C  0.61624152  0.78922706  0.66529378    -0.08510
C4247       C  0.61177888  0.80172281  0.68376405     0.05020
C4248       C  0.59352976  0.81550097  0.68347590    -0.03530
Br4249     Br  0.58635441  0.83593455  0.70566764    -0.03230
H4250       H  0.56356197  0.82263053  0.66803571     0.08930
H4251       H  0.63061171  0.77929542  0.66460050     0.06950
Br4252     Br  0.60771137  0.76951255  0.62436473    -0.03660
C4253       C  0.49119245  0.72836972  0.56850741    -0.10290
C4254       C  0.49313198  0.74996889  0.56235660     0.05900
C4255       C  0.49011209  0.75514548  0.54043483    -0.04060
C4256       C  0.48908538  0.73859690  0.52492513    -0.08510
C4257       C  0.49021483  0.71686866  0.53103793     0.05020
C4258       C  0.48937834  0.71196118  0.55323429    -0.03530
Br4259     Br  0.48690399  0.68309326  0.56394843    -0.03230
H4260       H  0.49234600  0.72406765  0.58536005     0.08930
H4261       H  0.48900395  0.74278792  0.50801879     0.06950
Br4262     Br  0.48878697  0.78419600  0.53049186    -0.03660
C4263       C  0.54523800  0.81003943  0.54010537    -0.10290
C4264       C  0.55008494  0.81967300  0.55986251     0.05900
C4265       C  0.57100116  0.82759848  0.56352423    -0.04060
C4266       C  0.58746898  0.82264264  0.54894228    -0.08510
C4267       C  0.58312852  0.80946572  0.53112801     0.05020
C4268       C  0.56176198  0.80361660  0.52640200    -0.03530
Br4269     Br  0.55486916  0.78197582  0.50557955    -0.03230
H4270       H  0.52931803  0.80343649  0.53753897     0.08930
H4271       H  0.60396690  0.82712745  0.55268080     0.06950
Br4272     Br  0.57850627  0.84123352  0.59013843    -0.03660
C4273       C  0.67346631  0.78077916  0.42155764    -0.10290
C4274       C  0.68268712  0.78117902  0.44234233     0.05900
C4275       C  0.70470690  0.77576701  0.44471679    -0.04060
C4276       C  0.71609349  0.76799459  0.42737003    -0.08510
C4277       C  0.70786381  0.76939069  0.40646413     0.05020
C4278       C  0.68627988  0.77570567  0.40343335    -0.03530
Br4279     Br  0.67446583  0.77882078  0.37517039    -0.03230
H4280       H  0.65665869  0.78508756  0.41935248     0.08930
H4281       H  0.73282553  0.76356519  0.42997865     0.06950
Br4282     Br  0.72210435  0.78232810  0.46968810    -0.03660
C4283       C  0.82730626  0.75781355  0.42570773    -0.10290
C4284       C  0.83093202  0.76880461  0.40635920     0.05900
C4285       C  0.85016953  0.78078907  0.40409376    -0.04060
C4286       C  0.86415346  0.78300035  0.42180293    -0.08510
C4287       C  0.85861635  0.77430519  0.44194452     0.05020
C4288       C  0.83995869  0.76135796  0.44360072    -0.03530
Br4289     Br  0.82847604  0.74945368  0.46979256    -0.03230
H4290       H  0.81305518  0.74796079  0.42792326     0.08930
H4291       H  0.87859185  0.79269760  0.42019871     0.06950
Br4292     Br  0.85795420  0.79478845  0.37776077    -0.03660
C4293       C  0.83746803  0.74432843  0.29133264    -0.10290
C4294       C  0.82721212  0.74648536  0.27140127     0.05900
C4295       C  0.80480348  0.74317237  0.26996958    -0.04060
C4296       C  0.79252911  0.74205825  0.28893103    -0.08510
C4297       C  0.80263820  0.74380080  0.30914280     0.05020
C4298       C  0.82540949  0.74262750  0.31017296    -0.03530
Br4299     Br  0.84103605  0.74116177  0.33688055    -0.03230
H4300       H  0.85485693  0.74613944  0.29245697     0.08930
H4301       H  0.77507182  0.74221607  0.28778647     0.06950
Br4302     Br  0.79022198  0.74331438  0.24275616    -0.03660
C4303       C  0.85086847  0.75668440  0.59608574    -0.10290
C4304       C  0.84400437  0.77752419  0.60090402     0.05900
C4305       C  0.85656911  0.79498201  0.59387793    -0.04060
C4306       C  0.87389636  0.79139794  0.57958481    -0.08510
C4307       C  0.87893639  0.77047851  0.57242051     0.05020
C4308       C  0.86816066  0.75307549  0.58207161    -0.03530
Br4309     Br  0.87400353  0.72411021  0.57381530    -0.03230
H4310       H  0.84159508  0.74319252  0.60184376     0.08930
H4311       H  0.88172296  0.80508618  0.57219143     0.06950
Br4312     Br  0.84907163  0.82388453  0.60166395    -0.03660
C4313       C  0.70416814  0.79249465  0.59213238    -0.10290
C4314       C  0.70876080  0.77164331  0.59913071     0.05900
C4315       C  0.69433806  0.75494359  0.59406544    -0.04060
C4316       C  0.67724683  0.75869110  0.57976272    -0.08510
C4317       C  0.67409978  0.77913225  0.57064399     0.05020
C4318       C  0.68670007  0.79643307  0.57842811    -0.03530
Br4319     Br  0.68120899  0.82566753  0.57065623    -0.03230
H4320       H  0.71481867  0.80561894  0.59652592     0.08930
H4321       H  0.66751837  0.74518634  0.57451746     0.06950
Br4322     Br  0.69811617  0.72660449  0.60529192    -0.03660
C4323       C  0.74534602  0.80443966  0.70447643    -0.10290
C4324       C  0.74123265  0.80778979  0.68256153     0.05900
C4325       C  0.72225454  0.81852761  0.67646081    -0.04060
C4326       C  0.70660762  0.82347391  0.69201407    -0.08510
C4327       C  0.70942714  0.81757009  0.71372218     0.05020
C4328       C  0.72978146  0.80951943  0.72010612    -0.03530
Br4329     Br  0.73623560  0.80201706  0.74928319    -0.03230
H4330       H  0.76010666  0.79644540  0.70932169     0.08930
H4331       H  0.69115063  0.82970164  0.68671141     0.06950
Br4332     Br  0.71558050  0.82358336  0.64674586    -0.03660
C4333       C  0.72663026  0.48903605  0.54110510    -0.10290
C4334       C  0.72057360  0.49294240  0.56251659     0.05900
C4335       C  0.69854692  0.49553317  0.56745379    -0.04060
C4336       C  0.68352935  0.49770238  0.55092790    -0.08510
C4337       C  0.69003810  0.49733066  0.52926552     0.05020
C4338       C  0.71143184  0.49086460  0.52442509    -0.03530
Br4339     Br  0.72148187  0.48616660  0.49564005    -0.03230
H4340       H  0.74350089  0.48651006  0.53715158     0.08930
H4341       H  0.66695260  0.50152344  0.55510724     0.06950
Br4342     Br  0.68834503  0.49818437  0.59647726    -0.03660
C4343       C  0.84163893  0.52994120  0.63474150    -0.10290
C4344       C  0.83581631  0.50823218  0.63257265     0.05900
C4345       C  0.84716541  0.49263446  0.64439521    -0.04060
C4346       C  0.86209916  0.49904683  0.66003386    -0.08510
C4347       C  0.86554098  0.52092822  0.66432792     0.05020
C4348       C  0.85613935  0.53639389  0.65081510    -0.03530
Br4349     Br  0.85985682  0.56652501  0.65622878    -0.03230
H4350       H  0.83265037  0.54213794  0.62611312     0.08930
H4351       H  0.86901596  0.48702218  0.67057281     0.06950
Br4352     Br  0.83985516  0.46272560  0.64230513    -0.03660
C4353       C  0.68695443  0.52119563  0.65484934    -0.10290
C4354       C  0.70650571  0.51044348  0.65865278     0.05900
C4355       C  0.70817240  0.49667210  0.67663693    -0.04060
C4356       C  0.69148003  0.49577620  0.69141837    -0.08510
C4357       C  0.67335777  0.50908684  0.68944832     0.05020
C4358       C  0.67035686  0.52071109  0.67017889    -0.03530
Br4359     Br  0.64449426  0.53660780  0.66408677    -0.03230
H4360       H  0.68516691  0.53124248  0.64075528     0.08930
H4361       H  0.69380636  0.48603052  0.70565274     0.06950
Br4362     Br  0.73312582  0.47972531  0.68372294    -0.03660
C4363       C  0.75290088  0.68383780  0.42832269    -0.10290
C4364       C  0.77319218  0.67385693  0.42810401     0.05900
C4365       C  0.78667380  0.67671864  0.41003944    -0.04060
C4366       C  0.78125199  0.69222090  0.39442521    -0.08510
C4367       C  0.76204699  0.70421912  0.39627832     0.05020
C4368       C  0.74714528  0.69860789  0.41245878    -0.03530
Br4369     Br  0.71926805  0.71197185  0.41445190    -0.03230
H4370       H  0.74197836  0.68117540  0.44169201     0.08930
H4371       H  0.79275518  0.69600707  0.38185175     0.06950
Br4372     Br  0.81272705  0.66044714  0.40653735    -0.03660
C4373       C  0.85730204  0.67413615  0.50867544    -0.10290
C4374       C  0.84401554  0.67441518  0.49029540     0.05900
C4375       C  0.84833948  0.68980936  0.47430885    -0.04060
C4376       C  0.86333817  0.70609520  0.47807754    -0.08510
C4377       C  0.87410053  0.70786635  0.49784172     0.05020
C4378       C  0.87288522  0.69034043  0.51212993    -0.03530
Br4379     Br  0.89178488  0.68778874  0.53626414    -0.03230
H4380       H  0.85465623  0.66211994  0.52096809     0.08930
H4381       H  0.86506283  0.71870668  0.46621644     0.06950
Br4382     Br  0.83162129  0.69208100  0.44862636    -0.03660
C4383       C  0.69544855  0.68642175  0.50649278    -0.10290
C4384       C  0.71464299  0.69228241  0.49567202     0.05900
C4385       C  0.71576905  0.71289739  0.48614125    -0.04060
C4386       C  0.69888968  0.72731350  0.48906341    -0.08510
C4387       C  0.68089566  0.72232223  0.50172610     0.05020
C4388       C  0.67859830  0.70130744  0.50958793    -0.03530
Br4389     Br  0.65387320  0.69284702  0.52606086    -0.03230
H4390       H  0.69397925  0.67060347  0.51356704     0.08930
H4391       H  0.70046816  0.74325126  0.48241387     0.06950
Br4392     Br  0.74040895  0.72421225  0.47095522    -0.03660
C4393       C  0.79083247  0.68343011  0.57076625    -0.10290
C4394       C  0.77094584  0.67839116  0.56134118     0.05900
C4395       C  0.75172736  0.68589232  0.57083924    -0.04060
C4396       C  0.75274250  0.70006416  0.58826038    -0.08510
C4397       C  0.77269565  0.70714661  0.59614376     0.05020
C4398       C  0.79177103  0.69753989  0.58830702    -0.03530
Br4399     Br  0.81935084  0.70364369  0.60069323    -0.03230
H4400       H  0.80567997  0.67737261  0.56373481     0.08930
H4401       H  0.73799067  0.70725473  0.59412952     0.06950
Br4402     Br  0.72388905  0.67965408  0.55882294    -0.03660
C4403       C  0.73786009  0.57584708  0.46259713    -0.10290
C4404       C  0.73171304  0.59741153  0.46540014     0.05900
C4405       C  0.70960185  0.60286608  0.46392126    -0.04060
C4406       C  0.69413204  0.58664623  0.46412520    -0.08510
C4407       C  0.70034600  0.56504449  0.46493124     0.05020
C4408       C  0.72222704  0.55958797  0.46233081    -0.03530
Br4409     Br  0.73159968  0.53034509  0.46086527    -0.03230
H4410       H  0.75476554  0.57143732  0.46271168     0.08930
H4411       H  0.67718353  0.59094393  0.46527141     0.06950
Br4412     Br  0.69943877  0.63209980  0.46339624    -0.03660
C4413       C  0.79721271  0.59316912  0.55233571    -0.10290
C4414       C  0.79455912  0.58831834  0.53043430     0.05900
C4415       C  0.79097556  0.56676686  0.52436527    -0.04060
C4416       C  0.78792832  0.55092472  0.54014401    -0.08510
C4417       C  0.78824187  0.55630271  0.56213161     0.05020
C4418       C  0.79432755  0.57738422  0.56812177    -0.03530
Br4419     Br  0.79813888  0.58571680  0.59767664    -0.03230
H4420       H  0.79984721  0.60968500  0.55729429     0.08930
H4421       H  0.78355590  0.53479209  0.53517474     0.06950
Br4422     Br  0.78759152  0.55880848  0.49476946    -0.03660
C4423       C  0.67994648  0.36230347  0.01489309    -0.10290
C4424       C  0.68198415  0.38127838  0.00308578     0.05900
C4425       C  0.66634496  0.38524255  0.98690545    -0.04060
C4426       C  0.65084360  0.36907559  0.98192646    -0.08510
C4427       C  0.65370162  0.34810492  0.99011577     0.05020
C4428       C  0.67116376  0.34482412  0.00432566    -0.03530
Br4429     Br  0.69283852  0.32311297  0.99877225    -0.03230
H4430       H  0.69190372  0.35885978  0.02718993     0.08930
H4431       H  0.63868674  0.37200836  0.96976511     0.06950
Br4432     Br  0.66747406  0.41063879  0.96967016    -0.03660
C4433       C  0.83113312  0.35658847  0.98610413    -0.10290
C4434       C  0.81249126  0.35548968  0.99889693     0.05900
C4435       C  0.81015027  0.33835759  0.01353062    -0.04060
C4436       C  0.82569331  0.32242462  0.01444306    -0.08510
C4437       C  0.84323168  0.32209496  0.00015484     0.05020
C4438       C  0.84636355  0.33986658  0.98629623    -0.03530
Br4439     Br  0.87001112  0.34200494  0.96637948    -0.03230
H4440       H  0.83299656  0.36959150  0.97469863     0.08930
H4441       H  0.82296062  0.30927486  0.02549854     0.06950
Br4442     Br  0.78536137  0.33399742  0.03162950    -0.03660
C4443       C  0.81659831  0.45084868  0.02033281    -0.10290
C4444       C  0.79522242  0.45661098  0.01573556     0.05900
C4445       C  0.78975556  0.47851102  0.01402348    -0.04060
C4446       C  0.80598795  0.49417511  0.01515644    -0.08510
C4447       C  0.82774622  0.48823036  0.01764149     0.05020
C4448       C  0.83281719  0.46641910  0.02146200    -0.03530
Br4449     Br  0.86180295  0.45675699  0.02696652    -0.03230
H4450       H  0.82092136  0.43401730  0.02169196     0.08930
H4451       H  0.80182478  0.51078643  0.01197830     0.06950
Br4452     Br  0.76103532  0.48749787  0.00670182    -0.03660
C4453       C  0.64594949  0.03995872  0.34436550    -0.10290
C4454       C  0.64473337  0.02062162  0.33248812     0.05900
C4455       C  0.66114663  0.00535176  0.33553026    -0.04060
C4456       C  0.67975861  0.01079313  0.34695814    -0.08510
C4457       C  0.68233085  0.03106558  0.35659814     0.05020
C4458       C  0.66444571  0.04515227  0.35664061    -0.03530
Br4459     Br  0.66541322  0.07259242  0.37067213    -0.03230
H4460       H  0.63344483  0.05197130  0.34235094     0.08930
H4461       H  0.69309593  0.99963666  0.34680386     0.06950
Br4462     Br  0.66093031  0.97820686  0.32112533    -0.03660
C4463       C  0.81874534  0.05403733  0.32769753    -0.10290
C4464       C  0.81520334  0.03558252  0.34012116     0.05900
C4465       C  0.83028440  0.01841555  0.33843948    -0.04060
C4466       C  0.84636163  0.01888380  0.32244780    -0.08510
C4467       C  0.84813204  0.03642096  0.30849335     0.05020
C4468       C  0.83508859  0.05462793  0.31221771    -0.03530
Br4469     Br  0.83823389  0.08046297  0.29586515    -0.03230
H4470       H  0.80811856  0.06780586  0.32931207     0.08930
H4471       H  0.85638853  0.00481898  0.31984944     0.06950
Br4472     Br  0.82911495  0.99307827  0.35594834    -0.03660
C4473       C  0.78741563  0.06006889  0.45511542    -0.10290
C4474       C  0.79240307  0.06322543  0.43334238     0.05900
C4475       C  0.81385419  0.06820835  0.42749627    -0.04060
C4476       C  0.83035911  0.06615416  0.44263385    -0.08510
C4477       C  0.82562854  0.05976581  0.46367008     0.05020
C4478       C  0.80396546  0.05819771  0.47031662    -0.03530
Br4479     Br  0.79645597  0.05059882  0.49919884    -0.03230
H4480       H  0.77099614  0.05649051  0.45988989     0.08930
H4481       H  0.84702611  0.06779715  0.43752741     0.06950
Br4482     Br  0.82163244  0.07538975  0.39845173    -0.03660
C4483       C  0.68792925  0.09857403  0.97042352    -0.10290
C4484       C  0.70949452  0.09196276  0.97319563     0.05900
C4485       C  0.71443288  0.06982633  0.97221246    -0.04060
C4486       C  0.69760154  0.05486503  0.97206187    -0.08510
C4487       C  0.67609236  0.06178963  0.97288506     0.05020
C4488       C  0.67122306  0.08365168  0.97053694    -0.03530
Br4489     Br  0.64195818  0.09389593  0.96978110    -0.03230
H4490       H  0.68385883  0.11552843  0.97031296     0.08930
H4491       H  0.70133321  0.03791468  0.97364464     0.06950
Br4492     Br  0.74324408  0.05879890  0.97410838    -0.03660
C4493       C  0.84401682  0.18616249  0.02545612    -0.10290
C4494       C  0.85711122  0.19292876  0.00837751     0.05900
C4495       C  0.85346883  0.18411823  0.98770853    -0.04060
C4496       C  0.83510484  0.17152179  0.98375871    -0.08510
C4497       C  0.82017413  0.16768903  0.00024654     0.05020
C4498       C  0.82552718  0.17377810  0.02149846    -0.03530
Br4499     Br  0.80689215  0.16737925  0.04530585    -0.03230
H4500       H  0.84643063  0.19289676  0.04138908     0.08930
H4501       H  0.83132897  0.16680837  0.96738158     0.06950
Br4502     Br  0.87100655  0.19238049  0.96364779    -0.03660
C4503       C  0.69283398  0.20529332  0.97326372    -0.10290
C4504       C  0.68977661  0.18684335  0.98558586     0.05900
C4505       C  0.66997161  0.18423649  0.99670567    -0.04060
C4506       C  0.65543215  0.20154216  0.99802065    -0.08510
C4507       C  0.66063323  0.22139042  0.98870370     0.05020
C4508       C  0.67912264  0.22272026  0.97527922    -0.03530
Br4509     Br  0.68903007  0.24797772  0.96064590    -0.03230
H4510       H  0.70740927  0.20731621  0.96380096     0.08930
H4511       H  0.64098069  0.19999882  0.00774244     0.06950
Br4512     Br  0.66229093  0.15809127  0.01111385    -0.03660
C4513       C  0.75668814  0.18838562  0.07155256    -0.10290
C4514       C  0.74170834  0.19054258  0.05478193     0.05900
C4515       C  0.72735879  0.20812065  0.05482623    -0.04060
C4516       C  0.72968105  0.22434481  0.07005644    -0.08510
C4517       C  0.74612401  0.22336177  0.08538971     0.05020
C4518       C  0.75900397  0.20480758  0.08688781    -0.03530
Br4519     Br  0.77951360  0.20120242  0.10952817    -0.03230
H4520       H  0.76726057  0.17452928  0.07210279     0.08930
H4521       H  0.71918800  0.23830129  0.06932522     0.06950
Br4522     Br  0.70449065  0.21107537  0.03429711    -0.03660
C4523       C  0.70056668  0.32185840  0.17563753    -0.10290
C4524       C  0.72242206  0.31747537  0.17964419     0.05900
C4525       C  0.72934504  0.31485175  0.20109636    -0.04060
C4526       C  0.71406994  0.31402909  0.21776716    -0.08510
C4527       C  0.69193343  0.31558702  0.21321702     0.05020
C4528       C  0.68533745  0.32090591  0.19222772    -0.03530
Br4529     Br  0.65544744  0.32499717  0.18516963    -0.03230
H4530       H  0.69500510  0.32370897  0.15920829     0.08930
H4531       H  0.71931636  0.30981954  0.23384493     0.06950
Br4532     Br  0.75878637  0.30794221  0.20782704    -0.03660
C4533       C  0.83811546  0.29465620  0.08889572    -0.10290
C4534       C  0.82730026  0.27959133  0.10169086     0.05900
C4535       C  0.83435228  0.25807034  0.10120847    -0.04060
C4536       C  0.84950771  0.25134630  0.08568079    -0.08510
C4537       C  0.85875962  0.26618084  0.07139502     0.05020
C4538       C  0.85406342  0.28817059  0.07424070    -0.03530
Br4539     Br  0.86694030  0.30970619  0.05655351    -0.03230
H4540       H  0.83291358  0.31130007  0.08904506     0.08930
H4541       H  0.85293250  0.23435922  0.08380553     0.06950
Br4542     Br  0.82200273  0.23713261  0.11997264    -0.03660
C4543       C  0.78104194  0.36126123  0.08465558    -0.10290
C4544       C  0.76407970  0.35228536  0.09656746     0.05900
C4545       C  0.74315417  0.36103794  0.09412108    -0.04060
C4546       C  0.73876120  0.37551447  0.07732851    -0.08510
C4547       C  0.75526030  0.38198456  0.06330731     0.05020
C4548       C  0.77677770  0.37634431  0.06840433    -0.03530
Br4549     Br  0.80053181  0.38701194  0.05166356    -0.03230
H4550       H  0.79726232  0.35493584  0.08637458     0.08930
H4551       H  0.72215752  0.37980846  0.07388103     0.06950
Br4552     Br  0.71959870  0.35113094  0.11159710    -0.03660
C4553       C  0.67601238  0.27936575  0.08725138    -0.10290
C4554       C  0.69444654  0.29202692  0.08386012     0.05900
C4555       C  0.69476892  0.30644141  0.06650116    -0.04060
C4556       C  0.67761318  0.30685283  0.05219812    -0.08510
C4557       C  0.66124427  0.29139663  0.05302157     0.05020
C4558       C  0.65946112  0.27871549  0.07183307    -0.03530
Br4559     Br  0.63559018  0.25982892  0.07734230    -0.03230
H4560       H  0.67533174  0.26860505  0.10090851     0.08930
H4561       H  0.67818185  0.31817759  0.03924416     0.06950
Br4562     Br  0.71899529  0.32431604  0.05963170    -0.03660
C4563       C  0.78514770  0.23530713  0.19033114    -0.10290
C4564       C  0.76647332  0.24701060  0.18470217     0.05900
C4565       C  0.74787381  0.24483467  0.19759189    -0.04060
C4566       C  0.74784236  0.23097219  0.21493545    -0.08510
C4567       C  0.76539430  0.21738444  0.21935438     0.05020
C4568       C  0.78468300  0.22036150  0.20751191    -0.03530
Br4569     Br  0.81014008  0.20388020  0.21333354    -0.03230
H4570       H  0.79964613  0.23688964  0.18069500     0.08930
H4571       H  0.73305564  0.22981082  0.22423047     0.06950
Br4572     Br  0.72079999  0.25868948  0.19185649    -0.03660
C4573       C  0.69466780  0.21492834  0.29372982    -0.10290
C4574       C  0.71678979  0.21681801  0.28915576     0.05900
C4575       C  0.72571678  0.23751083  0.28605304    -0.04060
C4576       C  0.71187864  0.25502431  0.28331380    -0.08510
C4577       C  0.68952820  0.25199338  0.28373063     0.05020
C4578       C  0.68091895  0.23230249  0.29056178    -0.03530
Br4579     Br  0.65035530  0.22759340  0.29268697    -0.03230
H4580       H  0.68766330  0.19925701  0.29673888     0.08930
H4581       H  0.71848238  0.27038700  0.27843634     0.06950
Br4582     Br  0.75596040  0.24252332  0.28130984    -0.03660
C4583       C  0.83038338  0.13182390  0.25311668    -0.10290
C4584       C  0.80964188  0.12370904  0.24831869     0.05900
C4585       C  0.80812714  0.10441253  0.23608588    -0.04060
C4586       C  0.82667050  0.09475674  0.22824528    -0.08510
C4587       C  0.84706170  0.10103474  0.23545523     0.05020
C4588       C  0.84903265  0.12004858  0.24754710    -0.03530
Br4589     Br  0.87659838  0.12926493  0.25796861    -0.03230
H4590       H  0.83206568  0.14641807  0.26252467     0.08930
H4591       H  0.82491215  0.07983904  0.21937029     0.06950
Br4592     Br  0.78221082  0.08776169  0.23122434    -0.03660
C4593       C  0.77148311  0.10701927  0.34940927    -0.10290
C4594       C  0.75061037  0.10388900  0.35761336     0.05900
C4595       C  0.73450050  0.11921038  0.35343724    -0.04060
C4596       C  0.73858468  0.13568302  0.33869373    -0.08510
C4597       C  0.75858167  0.13687701  0.32806625     0.05020
C4598       C  0.77556962  0.12349788  0.33475548    -0.03530
Br4599     Br  0.80326594  0.12448185  0.32093383    -0.03230
H4600       H  0.78402188  0.09527983  0.35260800     0.08930
H4601       H  0.72528980  0.14572396  0.33343933     0.06950
Br4602     Br  0.70592389  0.11623377  0.36483097    -0.03660
C4603       C  0.67360575  0.11492764  0.28425963    -0.10290
C4604       C  0.67797181  0.12540441  0.26475769     0.05900
C4605       C  0.66316230  0.12285779  0.24752100    -0.04060
C4606       C  0.64627035  0.10792350  0.24925026    -0.08510
C4607       C  0.64400310  0.09532870  0.26774904     0.05020
C4608       C  0.65678152  0.10007105  0.28580879    -0.03530
Br4609     Br  0.65286846  0.08523768  0.31237174    -0.03230
H4610       H  0.68419186  0.11719968  0.29796595     0.08930
H4611       H  0.63656867  0.10432825  0.23517593     0.06950
Br4612     Br  0.66672348  0.13642349  0.22003787    -0.03660
C4613       C  0.77036547  0.10587248  0.06265033    -0.10290
C4614       C  0.77399801  0.09793255  0.04184999     0.05900
C4615       C  0.77916236  0.07615052  0.03891511    -0.04060
C4616       C  0.77665836  0.06195171  0.05611192    -0.08510
C4617       C  0.76946812  0.06950473  0.07623667     0.05020
C4618       C  0.76839131  0.09189716  0.07995446    -0.03530
Br4619     Br  0.76300053  0.10447667  0.10779334    -0.03230
H4620       H  0.76712657  0.12284431  0.06510243     0.08930
H4621       H  0.77852542  0.04486833  0.05319815     0.06950
Br4622     Br  0.78709163  0.06478948  0.01136169    -0.03660
C4623       C  0.71306765  0.99602939  0.05432935    -0.10290
C4624       C  0.70598285  0.00114872  0.07523095     0.05900
C4625       C  0.68362084  0.00320059  0.07904576    -0.04060
C4626       C  0.66907437  0.00107305  0.06235309    -0.08510
C4627       C  0.67625101  0.99996216  0.04109040     0.05020
C4628       C  0.69836237  0.99595594  0.03704429    -0.03530
Br4629     Br  0.70973053  0.99341488  0.00844966    -0.03230
H4630       H  0.73021440  0.99474369  0.05102956     0.08930
H4631       H  0.65206238  0.00361456  0.06577140     0.06950
Br4632     Br  0.67147744  0.01391919  0.10511436    -0.03660
C4633       C  0.76179637  0.10083517  0.17610486    -0.10290
C4634       C  0.74307559  0.09107698  0.16790759     0.05900
C4635       C  0.72277394  0.10119434  0.17165248    -0.04060
C4636       C  0.72125801  0.11782420  0.18661484    -0.08510
C4637       C  0.73970100  0.12589431  0.19648193     0.05020
C4638       C  0.76013517  0.11890076  0.18954734    -0.03530
Br4639     Br  0.78569468  0.13424852  0.19762789    -0.03230
H4640       H  0.77759249  0.09441667  0.17214105     0.08930
H4641       H  0.70549280  0.12371549  0.19141688     0.06950
Br4642     Br  0.69597238  0.09294445  0.15832641    -0.03660
C4643       C  0.82358880  0.04899113  0.15084517    -0.10290
C4644       C  0.81812862  0.02735076  0.14763572     0.05900
C4645       C  0.83109807  0.01122117  0.15678924    -0.04060
C4646       C  0.84812349  0.01688812  0.17047786    -0.08510
C4647       C  0.85192212  0.03851113  0.17565558     0.05020
C4648       C  0.84019577  0.05465294  0.16500313    -0.03530
Br4649     Br  0.84426850  0.08448739  0.17176827    -0.03230
H4650       H  0.81335032  0.06152054  0.14431877     0.08930
H4651       H  0.85667029  0.00434556  0.17905060     0.06950
Br4652     Br  0.82402618  0.98139053  0.15365391    -0.03660
C4653       C  0.65233264  0.02316850  0.18796579    -0.10290
C4654       C  0.65578739  0.03751675  0.20489707     0.05900
C4655       C  0.67428377  0.05046431  0.20515236    -0.04060
C4656       C  0.68935615  0.04838349  0.18882135    -0.08510
C4657       C  0.68676473  0.03307760  0.17238045     0.05020
C4658       C  0.66800997  0.02025405  0.17210184    -0.03530
Br4659     Br  0.66444630  0.99566089  0.15425554    -0.03230
H4660       H  0.63834175  0.01280802  0.18817623     0.08930
H4661       H  0.70393774  0.05799075  0.18970720     0.06950
Br4662     Br  0.68105215  0.06966227  0.22835528    -0.03660
C4663       C  0.73434489  0.83028187  0.32633319    -0.10290
C4664       C  0.73785680  0.81006846  0.31696084     0.05900
C4665       C  0.73540209  0.80740989  0.29464948    -0.04060
C4666       C  0.73135233  0.82535873  0.28175445    -0.08510
C4667       C  0.73037825  0.84603478  0.29089904     0.05020
C4668       C  0.73063144  0.84826976  0.31348868    -0.03530
Br4669     Br  0.72783094  0.87575568  0.32743670    -0.03230
H4670       H  0.73622308  0.83237744  0.34356327     0.08930
H4671       H  0.73132869  0.82341184  0.26441409     0.06950
Br4672     Br  0.74030510  0.78014129  0.28101555    -0.03660
C4673       C  0.78138881  0.82917241  0.23638302    -0.10290
C4674       C  0.77948094  0.84588384  0.22166154     0.05900
C4675       C  0.79339792  0.84615222  0.20368374    -0.04060
C4676       C  0.81050377  0.83113649  0.20220499    -0.08510
C4677       C  0.81380073  0.81586842  0.21854780     0.05020
C4678       C  0.79852540  0.81483596  0.23546135    -0.03530
Br4679     Br  0.80120245  0.79721154  0.26030219    -0.03230
H4680       H  0.77083620  0.82884912  0.25034056     0.08930
H4681       H  0.82190979  0.83221963  0.18902326     0.06950
Br4682     Br  0.79021012  0.86704865  0.18152625    -0.03660
C4683       C  0.76767781  0.94903145  0.16256382    -0.10290
C4684       C  0.75031559  0.95927603  0.15263182     0.05900
C4685       C  0.72932104  0.95123246  0.15565253    -0.04060
C4686       C  0.72536445  0.93610046  0.17178430    -0.08510
C4687       C  0.74250988  0.92857598  0.18434088     0.05020
C4688       C  0.76390169  0.93347802  0.17821193    -0.03530
Br4689     Br  0.78839444  0.92181154  0.19297617    -0.03230
H4690       H  0.78396648  0.95479757  0.16001855     0.08930
H4691       H  0.70886182  0.93203249  0.17592457     0.06950
Br4692     Br  0.70572985  0.96208321  0.13916550    -0.03660
C4693       C  0.66663593  0.94089035  0.23556723    -0.10290
C4694       C  0.67468820  0.92776414  0.25202626     0.05900
C4695       C  0.66535326  0.92948732  0.27267180    -0.04060
C4696       C  0.64968675  0.94544100  0.27689694    -0.08510
C4697       C  0.64375588  0.96032979  0.26097934     0.05020
C4698       C  0.65150764  0.95707289  0.23991997    -0.03530
Br4699     Br  0.64370956  0.97575319  0.21692332    -0.03230
H4700       H  0.67382665  0.94004199  0.21966573     0.08930
H4701       H  0.64340442  0.94720503  0.29303712     0.06950
Br4702     Br  0.67594294  0.91267000  0.29620229    -0.03660
C4703       C  0.82038774  0.97833423  0.22933634    -0.10290
C4704       C  0.83960140  0.97593702  0.24100944     0.05900
C4705       C  0.84324649  0.95637866  0.25202254    -0.04060
C4706       C  0.82678122  0.94082948  0.25277918    -0.08510
C4707       C  0.80651767  0.94490505  0.24346984     0.05020
C4708       C  0.80371313  0.96372013  0.23113573    -0.03530
Br4709     Br  0.77712085  0.97237898  0.21775358    -0.03230
H4710       H  0.81728398  0.99276354  0.22012251     0.08930
H4711       H  0.82920895  0.92638221  0.26215786     0.06950
Br4712     Br  0.86958380  0.95018990  0.26706279    -0.03660
C4713       C  0.77447668  0.96529719  0.33647548    -0.10290
C4714       C  0.75597956  0.97065731  0.34812600     0.05900
C4715       C  0.73678741  0.95911355  0.34477438    -0.04060
C4716       C  0.73547998  0.94462140  0.32752299    -0.08510
C4717       C  0.75360692  0.94081401  0.31446182     0.05020
C4718       C  0.77361057  0.95024230  0.31996295    -0.03530
Br4719     Br  0.79976591  0.94595291  0.30385726    -0.03230
H4720       H  0.78926241  0.97421599  0.33901217     0.08930
H4721       H  0.72024582  0.93682800  0.32393396     0.06950
Br4722     Br  0.71223719  0.96301248  0.36307755    -0.03660
C4723       C  0.76862792  0.17196661  0.91243481    -0.10290
C4724       C  0.75286324  0.16334836  0.92606416     0.05900
C4725       C  0.73089888  0.16684149  0.92118707    -0.04060
C4726       C  0.72518389  0.18180165  0.90535029    -0.08510
C4727       C  0.74112858  0.19239679  0.89336480     0.05020
C4728       C  0.76282619  0.18597618  0.89579700    -0.03530
Br4729     Br  0.78543632  0.19858209  0.87909206    -0.03230
H4730       H  0.78557804  0.16932490  0.91589854     0.08930
H4731       H  0.70839965  0.18634783  0.90355772     0.06950
Br4732     Br  0.70824637  0.15343418  0.93736087    -0.03660
C4733       C  0.64998375  0.25607016  0.91740611    -0.10290
C4734       C  0.64637951  0.27772497  0.92295895     0.05900
C4735       C  0.65706962  0.29380877  0.91118033    -0.04060
C4736       C  0.67290140  0.28805600  0.89604803    -0.08510
C4737       C  0.67829312  0.26638314  0.89234737     0.05020
C4738       C  0.66583453  0.25031356  0.90229996    -0.03530
Br4739     Br  0.67273630  0.22040683  0.89915671    -0.03230
H4740       H  0.64222774  0.24350931  0.92665897     0.08930
H4741       H  0.68261948  0.30059881  0.88882817     0.06950
Br4742     Br  0.65373586  0.32369769  0.91815550    -0.03660
C4743       C  0.82735722  0.26345624  0.90663783    -0.10290
C4744       C  0.80858386  0.25139651  0.91117756     0.05900
C4745       C  0.80862077  0.23807077  0.92963173    -0.04060
C4746       C  0.82592671  0.23896979  0.94394376    -0.08510
C4747       C  0.84324431  0.25310007  0.94072729     0.05020
C4748       C  0.84456384  0.26448512  0.92128509    -0.03530
Br4749     Br  0.86797789  0.28370377  0.91522934    -0.03230
H4750       H  0.82808064  0.27341218  0.89239254     0.08930
H4751       H  0.82501644  0.22977717  0.95871749     0.06950
Br4752     Br  0.78512025  0.21978284  0.93814694    -0.03660
C4753       C  0.73445815  0.33042592  0.91162027    -0.10290
C4754       C  0.75432773  0.32344592  0.90331349     0.05900
C4755       C  0.77336827  0.33429229  0.90893552    -0.04060
C4756       C  0.77248875  0.35112288  0.92382733    -0.08510
C4757       C  0.75283195  0.35703135  0.93363260     0.05020
C4758       C  0.73352575  0.34722029  0.92660562    -0.03530
Br4759     Br  0.70559782  0.35557680  0.93724126    -0.03230
H4760       H  0.71974503  0.32201365  0.90729349     0.08930
H4761       H  0.78752132  0.35837177  0.92904140     0.06950
Br4762     Br  0.80117420  0.32467042  0.89907658    -0.03660
C4763       C  0.77935243  0.22466583  0.79491652    -0.10290
C4764       C  0.78741329  0.22868532  0.81573947     0.05900
C4765       C  0.80988531  0.22639244  0.81936558    -0.04060
C4766       C  0.82384185  0.22411136  0.80192352    -0.08510
C4767       C  0.81592825  0.22385502  0.78087819     0.05020
C4768       C  0.79354616  0.22214155  0.77744995    -0.03530
Br4769     Br  0.78181398  0.21960946  0.74899220    -0.03230
H4770       H  0.76216528  0.22565242  0.79181064     0.08930
H4771       H  0.84112682  0.22491833  0.80467135     0.06950
Br4772     Br  0.82318977  0.22851300  0.84724180    -0.03660
C4773       C  0.76140890  0.84711467  0.55194258    -0.10290
C4774       C  0.76308018  0.86855483  0.55839373     0.05900
C4775       C  0.76890989  0.87328227  0.57982261    -0.04060
C4776       C  0.77336551  0.85620716  0.59419859    -0.08510
C4777       C  0.77313624  0.83469288  0.58684121     0.05020
C4778       C  0.76799001  0.83063156  0.56500737    -0.03530
Br4779     Br  0.77233372  0.80371369  0.55005672    -0.03230
H4780       H  0.75709019  0.84314850  0.53547266     0.08930
H4781       H  0.77730497  0.85971544  0.61082116     0.06950
Br4782     Br  0.77173404  0.90236914  0.58953119    -0.03660
C4783       C  0.68741266  0.87913003  0.48339741    -0.10290
C4784       C  0.69709619  0.88293955  0.50343179     0.05900
C4785       C  0.68806300  0.87395022  0.52205459    -0.04060
C4786       C  0.67127454  0.85913129  0.52013548    -0.08510
C4787       C  0.66392354  0.85268562  0.49978714     0.05020
C4788       C  0.67085582  0.86392910  0.48145974    -0.03530
Br4789     Br  0.66097731  0.85615370  0.45324963    -0.03230
H4790       H  0.69429740  0.88613662  0.46900902     0.08930
H4791       H  0.66587583  0.85060747  0.53428851     0.06950
Br4792     Br  0.70057537  0.87882359  0.54990842    -0.03660
C4793       C  0.82716401  0.85866137  0.51668907    -0.10290
C4794       C  0.82923181  0.87248315  0.49903839     0.05900
C4795       C  0.84788497  0.87147061  0.48630490    -0.04060
C4796       C  0.86292171  0.85503511  0.48986732    -0.08510
C4797       C  0.85942835  0.83927059  0.50584370     0.05020
C4798       C  0.84198198  0.84216494  0.52026925    -0.03530
Br4799     Br  0.83580660  0.82340734  0.54395565    -0.03230
H4800       H  0.81295394  0.85964525  0.52684599     0.08930
H4801       H  0.87644842  0.85363505  0.47887789     0.06950
Br4802     Br  0.85194296  0.89019787  0.46219902    -0.03660
C4803       C  0.78588805  0.86768638  0.41927261    -0.10290
C4804       C  0.76679385  0.86907303  0.43161415     0.05900
C4805       C  0.74947547  0.85513431  0.42638946    -0.04060
C4806       C  0.75230232  0.83903518  0.41088581    -0.08510
C4807       C  0.77200728  0.83648859  0.40010029     0.05020
C4808       C  0.78861126  0.85144238  0.40372393    -0.03530
Br4809     Br  0.81605918  0.84859047  0.38969852    -0.03230
H4810       H  0.79943348  0.87810146  0.42289495     0.08930
H4811       H  0.73941022  0.82755418  0.40816247     0.06950
Br4812     Br  0.72185236  0.85613512  0.44043871    -0.03660
C4813       C  0.82507672  0.95470002  0.52854696    -0.10290
C4814       C  0.80326288  0.96016662  0.52652201     0.05900
C4815       C  0.79692768  0.98181838  0.52816215    -0.04060
C4816       C  0.81268551  0.99790003  0.52843209    -0.08510
C4817       C  0.83457483  0.99241410  0.52664284     0.05020
C4818       C  0.84079787  0.97071565  0.52891001    -0.03530
Br4819     Br  0.87060686  0.96206847  0.52978878    -0.03230
H4820       H  0.83001454  0.93799526  0.52764078     0.08930
H4821       H  0.80772279  0.01452677  0.52731981     0.06950
Br4822     Br  0.76717590  0.99016041  0.52648726    -0.03660
C4823       C  0.73457111  0.98278724  0.47105130    -0.10290
C4824       C  0.73647225  0.96199048  0.46240814     0.05900
C4825       C  0.73090328  0.95840581  0.44067746    -0.04060
C4826       C  0.72693344  0.97592296  0.42732331    -0.08510
C4827       C  0.72851737  0.99692479  0.43531630     0.05020
C4828       C  0.73081239  0.00030789  0.45754915    -0.03530
Br4829     Br  0.73230202  0.02872056  0.46945173    -0.03230
H4830       H  0.73823045  0.98572787  0.48782952     0.08930
H4831       H  0.72514988  0.97322540  0.41018109     0.06950
Br4832     Br  0.73027708  0.93019746  0.42793984    -0.03660
C4833       C  0.82027402  0.55610324  0.91877708    -0.10290
C4834       C  0.79844110  0.55232935  0.92360698     0.05900
C4835       C  0.79169227  0.55278307  0.94536613    -0.04060
C4836       C  0.80712873  0.55386775  0.96169376    -0.08510
C4837       C  0.82908233  0.55478497  0.95663837     0.05020
C4838       C  0.83558014  0.55741248  0.93515781    -0.03530
Br4839     Br  0.86537115  0.56090324  0.92744104    -0.03230
H4840       H  0.82567022  0.55656283  0.90218418     0.08930
H4841       H  0.80212469  0.55181848  0.97828774     0.06950
Br4842     Br  0.76235121  0.54889689  0.95429339    -0.03660
C4843       C  0.73986634  0.46476566  0.91003051    -0.10290
C4844       C  0.73471610  0.48570904  0.91661137     0.05900
C4845       C  0.72644864  0.48903822  0.93745864    -0.04060
C4846       C  0.72712359  0.47221562  0.95245466    -0.08510
C4847       C  0.73530838  0.45189559  0.94659978     0.05020
C4848       C  0.73978108  0.44781013  0.92460986    -0.03530
Br4849     Br  0.74686483  0.41980564  0.91334003    -0.03230
H4850       H  0.74534670  0.46183186  0.89369577     0.08930
H4851       H  0.72271473  0.47550747  0.96901898     0.06950
Br4852     Br  0.71581362  0.51646557  0.94663771    -0.03660
C4853       C  0.67578006  0.54509367  0.83805360    -0.10290
C4854       C  0.68895440  0.52885848  0.84634990     0.05900
C4855       C  0.68314618  0.50717421  0.84314947    -0.04060
C4856       C  0.66599617  0.50200168  0.82942962    -0.08510
C4857       C  0.65505266  0.51824337  0.81834777     0.05020
C4858       C  0.65894677  0.53990745  0.82397258    -0.03530
Br4859     Br  0.64464552  0.56299107  0.80931883    -0.03230
H4860       H  0.68023907  0.56179997  0.84026371     0.08930
H4861       H  0.66333546  0.48534089  0.82512595     0.06950
Br4862     Br  0.70031353  0.48415829  0.85458252    -0.03660
C4863       C  0.83774437  0.52642009  0.83095598    -0.10290
C4864       C  0.81989727  0.53989138  0.82671531     0.05900
C4865       C  0.82091562  0.55383785  0.80880450    -0.04060
C4866       C  0.83763777  0.55148467  0.79403340    -0.08510
C4867       C  0.85343418  0.53556804  0.79660596     0.05020
C4868       C  0.85448152  0.52412410  0.81599418    -0.03530
Br4869     Br  0.87625402  0.50280802  0.82128934    -0.03230
H4870       H  0.83780641  0.51615190  0.84499602     0.08930
H4871       H  0.83710094  0.56075297  0.77929290     0.06950
Br4872     Br  0.79921072  0.57468930  0.80149011    -0.03660
C4873       C  0.68156888  0.42107597  0.76091339    -0.10290
C4874       C  0.68378229  0.41531297  0.73918862     0.05900
C4875       C  0.66897143  0.42389858  0.72426273    -0.04060
C4876       C  0.65343018  0.43921253  0.73088721    -0.08510
C4877       C  0.65271884  0.44664226  0.75231000     0.05020
C4878       C  0.66649474  0.43665679  0.76747094    -0.03530
Br4879     Br  0.66759552  0.44599885  0.79693239    -0.03230
H4880       H  0.69309152  0.41504542  0.77255818     0.08930
H4881       H  0.64356509  0.44700877  0.71881395     0.06950
Br4882     Br  0.67098294  0.41667073  0.69433747    -0.03660
C4883       C  0.73569933  0.42314704  0.65880270    -0.10290
C4884       C  0.75266964  0.41245919  0.66922370     0.05900
C4885       C  0.77386721  0.41560766  0.66138568    -0.04060
C4886       C  0.77818709  0.43120663  0.64568816    -0.08510
C4887       C  0.76154537  0.44401189  0.63751004     0.05020
C4888       C  0.74001311  0.43876503  0.64303122    -0.03530
Br4889     Br  0.71618139  0.45458608  0.63133795    -0.03230
H4890       H  0.71929614  0.42117458  0.66456734     0.08930
H4891       H  0.79481578  0.43495652  0.64175860     0.06950
Br4892     Br  0.79785225  0.40088647  0.67368980    -0.03660
C4893       C  0.81380952  0.44567109  0.76075228    -0.10290
C4894       C  0.81511167  0.42861584  0.74599660     0.05900
C4895       C  0.83257421  0.42780732  0.73148525    -0.04060
C4896       C  0.84667466  0.44547748  0.73002736    -0.08510
C4897       C  0.84397584  0.46339359  0.74362855     0.05020
C4898       C  0.82815688  0.46280777  0.75985287    -0.03530
Br4899     Br  0.82420861  0.48569936  0.78024413    -0.03230
H4900       H  0.80067293  0.44627075  0.77231579     0.08930
H4901       H  0.85952034  0.44536177  0.71816879     0.06950
Br4902     Br  0.83756659  0.40331433  0.71347195    -0.03660
C4903       C  0.76690833  0.45215415  0.82959251    -0.10290
C4904       C  0.75689248  0.47179948  0.82459635     0.05900
C4905       C  0.74277167  0.47253220  0.80679740    -0.04060
C4906       C  0.74017036  0.45468880  0.79365363    -0.08510
C4907       C  0.75171461  0.43568137  0.79722719     0.05020
C4908       C  0.76450036  0.43412520  0.81606304    -0.03530
Br4909     Br  0.77898914  0.40814997  0.82433865    -0.03230
H4910       H  0.77729495  0.45103378  0.84356979     0.08930
H4911       H  0.72975210  0.45627071  0.77973754     0.06950
Br4912     Br  0.72618139  0.49710471  0.79881705    -0.03660
C4913       C  0.78162384  0.31116838  0.73623788    -0.10290
C4914       C  0.78436661  0.32704690  0.72060543     0.05900
C4915       C  0.79975459  0.32376093  0.70421344    -0.04060
C4916       C  0.81342631  0.30564805  0.70493653    -0.08510
C4917       C  0.81170344  0.29065865  0.72173976     0.05020
C4918       C  0.79515612  0.29334892  0.73710581    -0.03530
Br4919     Br  0.79217343  0.27550328  0.76188510    -0.03230
H4920       H  0.77001202  0.31360994  0.74908764     0.08930
H4921       H  0.82633153  0.30405694  0.69324396     0.06950
Br4922     Br  0.80412245  0.34443017  0.68201849    -0.03660
C4923       C  0.72925111  0.31367398  0.77549055    -0.10290
C4924       C  0.72968910  0.33520251  0.78262580     0.05900
C4925       C  0.72766657  0.33923591  0.80497702    -0.04060
C4926       C  0.72749063  0.32212568  0.81961005    -0.08510
C4927       C  0.72903246  0.30074736  0.81255278     0.05020
C4928       C  0.72915940  0.29654083  0.79026007    -0.03530
Br4929     Br  0.73163476  0.26772815  0.77947619    -0.03230
H4930       H  0.73077182  0.31010434  0.75847973     0.08930
H4931       H  0.72745387  0.32560396  0.83672101     0.06950
Br4932     Br  0.72593689  0.36783211  0.81665413    -0.03660
C4933       C  0.78583676  0.62193429  0.83355732    -0.10290
C4934       C  0.77067280  0.63307839  0.82106200     0.05900
C4935       C  0.74853053  0.63060218  0.82573083    -0.04060
C4936       C  0.74183129  0.61452206  0.83999193    -0.08510
C4937       C  0.75701485  0.60155284  0.85053064     0.05020
C4938       C  0.77913469  0.60654861  0.84857130    -0.03530
Br4939     Br  0.80089184  0.59018872  0.86322989    -0.03230
H4940       H  0.80291349  0.62358818  0.83008395     0.08930
H4941       H  0.72477426  0.61083953  0.84131682     0.06950
Br4942     Br  0.72678823  0.64625778  0.81032780    -0.03660
C4943       C  0.85082026  0.61695946  0.76095597    -0.10290
C4944       C  0.83754376  0.62716679  0.74580396     0.05900
C4945       C  0.84067316  0.62204800  0.72375760    -0.04060
C4946       C  0.85436378  0.60504583  0.71757604    -0.08510
C4947       C  0.86560950  0.59314575  0.73303832     0.05020
C4948       C  0.86486286  0.60021494  0.75467604    -0.03530
Br4949     Br  0.88106738  0.58564655  0.77650442    -0.03230
H4950       H  0.84855093  0.62027237  0.77794042     0.08930
H4951       H  0.85449351  0.59978765  0.70093102     0.06950
Br4952     Br  0.82364843  0.63552152  0.70176974    -0.03660
C4953       C  0.71435648  0.58824066  0.76791104    -0.10290
C4954       C  0.71003154  0.60816295  0.75843290     0.05900
C4955       C  0.68952122  0.61178119  0.74929916    -0.04060
C4956       C  0.67492144  0.59478375  0.74737762    -0.08510
C4957       C  0.68051080  0.57417852  0.75450722     0.05020
C4958       C  0.69991243  0.57134970  0.76599142    -0.03530
Br4959     Br  0.70816207  0.54507479  0.77945169    -0.03230
H4960       H  0.72972933  0.58520363  0.77567954     0.08930
H4961       H  0.65958470  0.59748873  0.73942966     0.06950
Br4962     Br  0.68025047  0.63930942  0.73958932    -0.03660
C4963       C  0.76068489  0.60871988  0.67314438    -0.10290
C4964       C  0.77068586  0.60496026  0.69304567     0.05900
C4965       C  0.78288228  0.58582938  0.69557204    -0.04060
C4966       C  0.78356287  0.57052495  0.67914201    -0.08510
C4967       C  0.77195049  0.57325600  0.66000123     0.05020
C4968       C  0.76108440  0.59307724  0.65671641    -0.03530
Br4969     Br  0.74615936  0.59985636  0.63051678    -0.03230
H4970       H  0.75153294  0.62336974  0.67075047     0.08930
H4971       H  0.79231778  0.55571849  0.68201415     0.06950
Br4972     Br  0.79875170  0.57866147  0.72113489    -0.03660
C4973       C  0.73041565  0.72550720  0.78058675    -0.10290
C4974       C  0.72531693  0.70816907  0.76659790     0.05900
C4975       C  0.70597922  0.71003532  0.75434969    -0.04060
C4976       C  0.69310828  0.72828836  0.75588068    -0.08510
C4977       C  0.69919785  0.74630717  0.76786093     0.05020
C4978       C  0.71773940  0.74461123  0.78099253    -0.03530
Br4979     Br  0.72726432  0.76839632  0.79811936    -0.03230
H4980       H  0.74507105  0.72485638  0.79006650     0.08930
H4981       H  0.67896603  0.72914866  0.74571181     0.06950
Br4982     Br  0.69706197  0.69105751  0.73158204    -0.03660
C4983       C  0.80816417  0.70656331  0.69750723    -0.10290
C4984       C  0.79162484  0.70858131  0.71282419     0.05900
C4985       C  0.78200411  0.72887970  0.71612224    -0.04060
C4986       C  0.78805758  0.74633992  0.70362244    -0.08510
C4987       C  0.80193506  0.74351510  0.68617995     0.05020
C4988       C  0.81304048  0.72384831  0.68387196    -0.03530
Br4989     Br  0.83289957  0.71949315  0.66060892    -0.03230
H4990       H  0.81607213  0.69119950  0.69507161     0.08930
H4991       H  0.77901150  0.76120150  0.70521766     0.06950
Br4992     Br  0.75841167  0.73361906  0.73517505    -0.03660
loop_ 
_geom_bond_atom_site_label_1 
_geom_bond_atom_site_label_2 
_geom_bond_distance 
_geom_bond_site_symmetry_2 
_ccdc_geom_bond_type 
O1           C16   1.257       .  A
O1           Al9   1.927       .  S
C2           O12   1.269       .  A
C2            O3   1.258       .  A
C2         C4964   1.488       .  S
O3           Al5   1.908       .  S
O4            C6   1.254       .  A
O4           Al5   1.840       .  S
Al5          O13   1.874       .  S
Al5          O15   1.903       .  S
Al5          O14   1.770       .  S
C6           O19   1.286       .  A
C6         C4944   1.488       .  S
O7           C17   1.257       .  A
O7           Al9   1.891       .  S
O8           C21   1.258       .  A
O8          Al18   1.883       .  S
Al9          O22   1.989       .  S
Al9          O19   2.016       .  S
Al9          O14   1.776       .  S
O10          C17   1.265       .  A
O10         Al18   1.930       .  S
O11          C20   1.271       .  A
O11         Al18   1.943       .  S
O12         Al18   1.941       .  S
O13          C20   1.263       .  A
O14         Al18   1.766       .  S
O15          C16   1.253       .  A
C16        C4934   1.474       .  S
C17        C4984   1.473       .  S
C20        C4954   1.471       .  S
C21          O22   1.278       .  A
C21        C4974   1.515       .  S
O23          C38   1.264       .  A
O23         Al31   1.945       .  S
C24          O34   1.263       .  A
C24          O25   1.259       .  A
C24        C4894   1.471       .  S
O25         Al27   1.891       .  S
O26          C28   1.258       .  A
O26         Al27   1.870       .  S
Al27         O35   1.885       .  S
Al27         O37   1.916       .  S
Al27         O36   1.769       .  S
C28          O41   1.280       .  A
C28        C4884   1.489       .  S
O29          C39   1.266       .  A
O29         Al31   1.929       .  S
O30          C43   1.261       .  A
O30         Al40   1.889       .  S
Al31         O44   1.962       .  S
Al31         O41   1.996       .  S
Al31         O36   1.782       .  S
O32          C39   1.263       .  A
O32         Al40   1.895       .  S
O33          C42   1.266       .  A
O33         Al40   1.936       .  S
O34         Al40   1.928       .  S
O35          C42   1.264       .  A
O36         Al40   1.780       .  S
O37          C38   1.257       .  A
C38        C4874   1.489       .  S
C39        C4914   1.476       .  S
C42        C4907   1.484       .  S
C43          O44   1.272       .  A
C43        C4924   1.495       .  S
O45          C60   1.261       .  A
O45         Al53   1.922       .  S
C46          O56   1.260       .  A
C46          O47   1.260       .  A
C46        C4904   1.482       .  S
O47         Al49   1.909       .  S
O48          C50   1.257       .  A
O48         Al49   1.866       .  S
Al49         O57   1.889       .  S
Al49         O59   1.909       .  S
Al49         O58   1.770       .  S
C50          O63   1.267       .  A
C50        C4854   1.466       .  S
O51          C61   1.264       .  A
O51         Al53   1.917       .  S
O52          C65   1.260       .  A
O52         Al62   1.885       .  S
Al53         O66   1.912       .  S
Al53         O63   1.944       .  S
Al53         O58   1.787       .  S
O54          C61   1.262       .  A
O54         Al62   1.892       .  S
O55          C64   1.265       .  A
O55         Al62   1.915       .  S
O56         Al62   1.912       .  S
O57          C64   1.260       .  A
O58         Al62   1.771       .  S
O59          C60   1.259       .  A
C60        C4937   1.474       .  S
C61        C4844   1.473       .  S
C64        C4864   1.482       .  S
C65          O66   1.261       .  A
C65        C4834   1.474       .  S
O67          C82   1.256       .  A
O67         Al75   1.896       .  S
C68          O78   1.263       .  A
C68          O69   1.259       .  A
C68        C4794   1.467       .  S
O69         Al71   1.899       .  S
O70          C72   1.252       .  A
O70         Al71   1.848       .  S
Al71         O79   1.885       .  S
Al71         O81   1.910       .  S
Al71         O80   1.750       .  S
C72          O85   1.269       .  A
C72        C4774   1.473       .  S
O73          C83   1.258       .  A
O73         Al75   1.894       .  S
O74          C87   1.264       .  A
O74         Al84   1.879       .  S
Al75         O88   1.932       .  S
Al75         O85   1.974       .  S
Al75         O80   1.791       .  S
O76          C83   1.264       .  A
O76         Al84   1.908       .  S
O77          C86   1.271       .  A
O77         Al84   1.957       .  S
O78         Al84   1.920       .  S
O79          C86   1.260       .  A
O80         Al84   1.768       .  S
O81          C82   1.261       .  A
C82        C4784   1.460       .  S
C83        C4814   1.459       .  S
C86        C4804   1.491       .  S
C87          O88   1.270       .  A
C87        C4824   1.471       .  S
O89         C104   1.262       .  A
O89         Al97   1.926       .  S
C90         O100   1.259       .  A
C90          O91   1.258       .  A
C90        C4754   1.459       .  S
O91         Al93   1.897       .  S
O92          C94   1.256       .  A
O92         Al93   1.868       .  S
Al93        O101   1.892       .  S
Al93        O103   1.910       .  S
Al93        O102   1.775       .  S
C94         O107   1.272       .  A
C94        C4737   1.478       .  S
O95         C105   1.268       .  A
O95         Al97   1.931       .  S
O96         C109   1.257       .  A
O96        Al106   1.873       .  S
Al97        O110   1.940       .  S
Al97        O107   1.968       .  S
Al97        O102   1.786       .  S
O98         C105   1.262       .  A
O98        Al106   1.910       .  S
O99         C108   1.265       .  A
O99        Al106   1.926       .  S
O100       Al106   1.898       .  S
O101        C108   1.259       .  A
O102       Al106   1.776       .  S
O103        C104   1.259       .  A
C104       C4727   1.477       .  S
C105       C4927   1.482       .  S
C108       C4744   1.490       .  S
C109        O110   1.268       .  A
C109       C4764   1.483       .  S
O111        C126   1.263       .  A
O111       Al119   1.948       .  S
C112        O122   1.262       .  A
C112        O113   1.255       .  A
C112       C4707   1.473       .  S
O113       Al115   1.890       .  S
O114        C116   1.259       .  A
O114       Al115   1.860       .  S
Al115       O123   1.906       .  S
Al115       O125   1.871       .  S
Al115       O124   1.774       .  S
C116        O129   1.269       .  A
C116       C4687   1.465       .  S
O117        C127   1.260       .  A
O117       Al119   1.935       .  S
O118        C131   1.261       .  A
O118       Al128   1.877       .  S
Al119       O132   1.926       .  S
Al119       O129   1.941       .  S
Al119       O124   1.797       .  S
O120        C127   1.255       .  A
O120       Al128   1.869       .  S
O121        C130   1.262       .  A
O121       Al128   1.906       .  S
O122       Al128   1.923       .  S
O123        C130   1.265       .  A
O124       Al128   1.777       .  S
O125        C126   1.249       .  A
C126       C4694   1.481       .  S
C127       C4674   1.477       .  S
C130       C4717   1.465       .  S
C131        O132   1.268       .  A
C131       C4667   1.471       .  S
O133        C148   1.256       .  A
O133       Al141   1.910       .  S
C134        O144   1.261       .  A
C134        O135   1.256       .  A
C134       C4657   1.466       .  S
O135       Al137   1.875       .  S
O136        C138   1.260       .  A
O136       Al137   1.876   1_565  S
Al137       O145   1.932       .  S
Al137       O147   1.881       .  S
Al137       O146   1.782       .  S
C138        O151   1.264       .  A
C138       C4684   1.463       .  S
O139        C149   1.260   1_565  A
O139       Al141   1.921   1_565  S
O140        C153   1.258       .  A
O140       Al150   1.870       .  S
Al141       O154   1.910       .  S
Al141       O151   1.926   1_545  S
Al141       O146   1.801       .  S
O142        C149   1.251       .  A
O142       Al150   1.865       .  S
O143        C152   1.252       .  A
O143       Al150   1.875       .  S
O144       Al150   1.922       .  S
O145        C152   1.268       .  A
O146       Al150   1.782       .  S
O147        C148   1.253       .  A
C148       C4644   1.465       .  S
C149       C4624   1.471       .  S
C152       C4634   1.478       .  S
C153        O154   1.264       .  A
C153       C4617   1.472       .  S
O155        C170   1.260       .  A
O155       Al163   1.919       .  S
C156        O166   1.264       .  A
C156        O157   1.269       .  A
C156       C4637   1.458       .  S
O157       Al159   1.914       .  S
O158        C160   1.249       .  A
O158       Al159   1.844       .  S
Al159       O167   1.901       .  S
Al159       O169   1.858       .  S
Al159       O168   1.770       .  S
C160        O173   1.265       .  A
C160       C4584   1.485       .  S
O161        C171   1.261       .  A
O161       Al163   1.950       .  S
O162        C175   1.269       .  A
O162       Al172   1.875       .  S
Al163       O176   1.929       .  S
Al163       O173   1.934       .  S
Al163       O168   1.801       .  S
O164        C171   1.251       .  A
O164       Al172   1.860       .  S
O165        C174   1.252       .  A
O165       Al172   1.916       .  S
O166       Al172   1.897       .  S
O167        C174   1.253       .  A
O168       Al172   1.777       .  S
O169        C170   1.252       .  A
C170       C4597   1.462       .  S
C171       C4567   1.494       .  S
C174       C4604   1.487       .  S
C175        O176   1.272       .  A
C175       C4574   1.468       .  S
O177        C192   1.261       .  A
O177       Al185   1.933       .  S
C178        O188   1.257       .  A
C178        O179   1.258       .  A
C178       C4554   1.467       .  S
O179       Al181   1.904       .  S
O180        C182   1.257       .  A
O180       Al181   1.865       .  S
Al181       O189   1.905       .  S
Al181       O191   1.892       .  S
Al181       O190   1.779       .  S
C182        O195   1.276       .  A
C182       C4544   1.484       .  S
O183        C193   1.260       .  A
O183       Al185   1.918       .  S
O184        C197   1.260       .  A
O184       Al194   1.885       .  S
Al185       O198   1.955       .  S
Al185       O195   1.978       .  S
Al185       O190   1.796       .  S
O186        C193   1.254       .  A
O186       Al194   1.871       .  S
O187        C196   1.262       .  A
O187       Al194   1.911       .  S
O188       Al194   1.899       .  S
O189        C196   1.263       .  A
O190       Al194   1.780       .  S
O191        C192   1.254       .  A
C192       C4534   1.479       .  S
C193       C4524   1.469       .  S
C196       C4517   1.460       .  S
C197        O198   1.271       .  A
C197       C4564   1.483       .  S
O199        C214   1.259       .  A
O199       Al207   1.919       .  S
C200        O210   1.258       .  A
C200        O201   1.259       .  A
C200       C4514   1.464       .  S
O201       Al203   1.906   1_554  S
O202        C204   1.262   1_554  A
O202       Al203   1.881   1_554  S
Al203       O211   1.883       .  S
Al203       O213   1.915       .  S
Al203       O212   1.764       .  S
C204        O217   1.273       .  A
C204       C4497   1.479   1_556  S
O205        C215   1.261       .  A
O205       Al207   1.902   1_554  S
O206        C219   1.255       .  A
O206       Al216   1.858   1_556  S
Al207       O220   1.931       .  S
Al207       O217   1.958       .  S
Al207       O212   1.786       .  S
O208        C215   1.261       .  A
O208       Al216   1.885       .  S
O209        C218   1.262   1_554  A
O209       Al216   1.916       .  S
O210       Al216   1.905       .  S
O211        C218   1.265       .  A
O212       Al216   1.772   1_556  S
O213        C214   1.260       .  A
C214       C4724   1.475       .  S
C215       C4614   1.460       .  S
C218       C4504   1.478       .  S
C219        O220   1.264       .  A
C219       C4484   1.474       .  S
O221        C236   1.258       .  A
O221       Al229   1.902       .  S
C222        O232   1.260       .  A
C222        O223   1.265   1_565  A
C222       C4714   1.456       .  S
O223       Al225   1.909       .  S
O224        C226   1.258       .  A
O224       Al225   1.874       .  S
Al225       O233   1.906       .  S
Al225       O235   1.903       .  S
Al225       O234   1.764       .  S
C226        O239   1.269       .  A
C226       C4457   1.495       .  S
O227        C237   1.259       .  A
O227       Al229   1.907       .  S
O228        C241   1.259       .  A
O228       Al238   1.863       .  S
Al229       O242   1.954       .  S
Al229       O239   1.960       .  S
Al229       O234   1.792       .  S
O230        C237   1.259       .  A
O230       Al238   1.894       .  S
O231        C240   1.259       .  A
O231       Al238   1.923       .  S
O232       Al238   1.897   1_565  S
O233        C240   1.261       .  A
O234       Al238   1.777       .  S
O235        C236   1.262       .  A
C236       C4594   1.466       .  S
C237       C4827   1.457   1_545  S
C240       C4464   1.491       .  S
C241        O242   1.272       .  A
C241       C4474   1.470       .  S
O243        C258   1.255       .  A
O243       Al251   1.943       .  S
C244        O254   1.260       .  A
C244        O245   1.252       .  A
C244       C4434   1.468       .  S
O245       Al247   1.881       .  S
O246        C248   1.260       .  A
O246       Al247   1.869   1_554  S
Al247       O255   1.896       .  S
Al247       O257   1.842   1_556  S
Al247       O256   1.774       .  S
C248        O261   1.277       .  A
C248       C4547   1.485       .  S
O249        C259   1.256       .  A
O249       Al251   1.906       .  S
O250        C263   1.260       .  A
O250       Al260   1.870       .  S
Al251       O264   1.934   1_554  S
Al251       O261   1.974       .  S
Al251       O256   1.805   1_554  S
O252        C259   1.253   1_556  A
O252       Al260   1.875       .  S
O253        C262   1.265       .  A
O253       Al260   1.918       .  S
O254       Al260   1.917       .  S
O255        C262   1.263       .  A
O256       Al260   1.786       .  S
O257        C258   1.250       .  A
C258       C4424   1.488       .  S
C259       C4444   1.469       .  S
C262       C4757   1.477       .  S
C263        O264   1.270       .  A
C263       C4847   1.484       .  S
O265        C280   1.259       .  A
O265       Al273   1.892       .  S
C266        O276   1.262       .  A
C266        O267   1.264       .  A
C266       C4364   1.481       .  S
O267       Al269   1.916       .  S
O268        C270   1.253       .  A
O268       Al269   1.878       .  S
Al269       O277   1.878       .  S
Al269       O279   1.916       .  S
Al269       O278   1.765       .  S
C270        O283   1.261       .  A
C270       C4384   1.486       .  S
O271        C281   1.256       .  A
O271       Al273   1.861       .  S
O272        C285   1.271       .  A
O272       Al282   1.937       .  S
Al273       O286   1.902       .  S
Al273       O283   1.928       .  S
Al273       O278   1.778       .  S
O274        C281   1.269       .  A
O274       Al282   1.944       .  S
O275        C284   1.272       .  A
O275       Al282   1.973       .  S
O276       Al282   1.922       .  S
O277        C284   1.255       .  A
O278       Al282   1.790       .  S
O279        C280   1.264       .  A
C280       C4394   1.461       .  S
C281       C4404   1.475       .  S
C284       C4374   1.482       .  S
C285        O286   1.262       .  A
C285       C4414   1.477       .  S
O287        C302   1.258       .  A
O287       Al295   1.921       .  S
C288        O298   1.262       .  A
C288        O289   1.256       .  A
C288       C4354   1.469       .  S
O289       Al291   1.889       .  S
O290        C292   1.255       .  A
O290       Al291   1.866       .  S
Al291       O299   1.905       .  S
Al291       O301   1.887       .  S
Al291       O300   1.774       .  S
C292        O305   1.275       .  A
C292       C4887   1.485       .  S
O293        C303   1.261       .  A
O293       Al295   1.913       .  S
O294        C307   1.263       .  A
O294       Al304   1.890       .  S
Al295       O308   1.948       .  S
Al295       O305   1.980       .  S
Al295       O300   1.788       .  S
O296        C303   1.259       .  A
O296       Al304   1.892       .  S
O297        C306   1.264       .  A
O297       Al304   1.929       .  S
O298       Al304   1.911       .  S
O299        C306   1.266       .  A
O300       Al304   1.774       .  S
O301        C302   1.253       .  A
C302       C4344   1.467       .  S
C303       C4334   1.472       .  S
C306       C4967   1.491       .  S
C307        O308   1.271       .  A
C307       C4417   1.488       .  S
O309        C324   1.258       .  A
O309       Al317   1.906       .  S
C310        O320   1.263       .  A
C310        O311   1.270       .  A
C310       C4314   1.472       .  S
O311       Al313   1.943       .  S
O312        C314   1.250       .  A
O312       Al313   1.839       .  S
Al313       O321   1.887       .  S
Al313       O323   1.923       .  S
Al313       O322   1.746       .  S
C314        O327   1.273       .  A
C314       C4777   1.481       .  S
O315        C325   1.260       .  A
O315       Al317   1.908       .  S
O316        C329   1.258       .  A
O316       Al326   1.859       .  S
Al317       O330   1.961       .  S
Al317       O327   1.978       .  S
Al317       O322   1.786       .  S
O318        C325   1.264       .  A
O318       Al326   1.928       .  S
O319        C328   1.265       .  A
O319       Al326   1.944       .  S
O320       Al326   1.905       .  S
O321        C328   1.256       .  A
O322       Al326   1.770       .  S
O323        C324   1.263       .  A
C324       C4304   1.476       .  S
C325       C4324   1.473       .  S
C328       C4397   1.471       .  S
C329        O330   1.276       .  A
C329       C4987   1.457       .  S
O331        C346   1.266       .  A
O331       Al339   1.942       .  S
C332        O342   1.260       .  A
C332        O333   1.257       .  A
C332       C4807   1.472       .  S
O333       Al335   1.909       .  S
O334        C336   1.253       .  A
O334       Al335   1.854       .  S
Al335       O343   1.852       .  S
Al335       O345   1.918       .  S
Al335       O344   1.735       .  S
C336        O349   1.274       .  A
C336       C4277   1.466       .  S
O337        C347   1.263       .  A
O337       Al339   1.901       .  S
O338        C351   1.260       .  A
O338       Al348   1.869       .  S
Al339       O352   1.943       .  S
Al339       O349   1.988       .  S
Al339       O344   1.784       .  S
O340        C347   1.266       .  A
O340       Al348   1.910       .  S
O341        C350   1.272       .  A
O341       Al348   1.963       .  S
O342       Al348   1.923       .  S
O343        C350   1.258       .  A
O344       Al348   1.767       .  S
O345        C346   1.261       .  A
C346       C4367   1.482       .  S
C347       C4664   1.462       .  S
C350       C4284   1.481       .  S
C351        O352   1.270       .  A
C351       C4297   1.478       .  S
O353        C368   1.256       .  A
O353       Al361   1.897       .  S
C354        O364   1.262       .  A
C354        O355   1.267       .  A
C354       C4244   1.468       .  S
O355       Al357   1.909       .  S
O356        C358   1.253       .  A
O356       Al357   1.863       .  S
Al357       O365   1.909       .  S
Al357       O367   1.912       .  S
Al357       O366   1.764       .  S
C358        O371   1.271       .  A
C358       C4224   1.475       .  S
O359        C369   1.254       .  A
O359       Al361   1.902       .  S
O360        C373   1.265       .  A
O360       Al370   1.877       .  S
Al361       O374   1.971       .  S
Al361       O371   1.964       .  S
Al361       O366   1.790       .  S
O362        C369   1.256       .  A
O362       Al370   1.875       .  S
O363        C372   1.260       .  A
O363       Al370   1.919       .  S
O364       Al370   1.907       .  S
O365        C372   1.260       .  A
O366       Al370   1.777       .  S
O367        C368   1.262       .  A
C368       C4214   1.468       .  S
C369       C4264   1.452       .  S
C372       C4234   1.475       .  S
C373        O374   1.277       .  A
C373       C4254   1.489       .  S
O375        C390   1.256       .  A
O375       Al383   1.908       .  S
C376        O386   1.266       .  A
C376        O377   1.264       .  A
C376       C4387   1.475       .  S
O377       Al379   1.905       .  S
O378        C380   1.253       .  A
O378       Al379   1.840       .  S
Al379       O387   1.890       .  S
Al379       O389   1.872       .  S
Al379       O388   1.761       .  S
C380        O393   1.266       .  A
C380       C4274   1.474       .  S
O381        C391   1.256       .  A
O381       Al383   1.906       .  S
O382        C395   1.267       .  A
O382       Al392   1.883       .  S
Al383       O396   1.918       .  S
Al383       O393   1.940       .  S
Al383       O388   1.797       .  S
O384        C391   1.259       .  A
O384       Al392   1.899       .  S
O385        C394   1.266       .  A
O385       Al392   1.951       .  S
O386       Al392   1.925       .  S
O387        C394   1.256       .  A
O388       Al392   1.779       .  S
O389        C390   1.253       .  A
C390       C4787   1.462       .  S
C391       C4204   1.470       .  S
C394       C4317   1.487       .  S
C395        O396   1.269       .  A
C395       C4267   1.454       .  S
O397        C412   1.262       .  A
O397       Al405   1.934       .  S
C398        O408   1.263       .  A
C398        O399   1.261       .  A
C398       C4237   1.463       .  S
O399       Al401   1.902       .  S
O400        C402   1.257       .  A
O400       Al401   1.848       .  S
Al401       O409   1.893       .  S
Al401       O411   1.880       .  S
Al401       O410   1.771       .  S
C402        O415   1.274       .  A
C402       C4154   1.497       .  S
O403        C413   1.259       .  A
O403       Al405   1.920       .  S
O404        C417   1.263       .  A
O404       Al414   1.877       .  S
Al405       O418   1.969       .  S
Al405       O415   1.974       .  S
Al405       O410   1.787       .  S
O406        C413   1.256       .  A
O406       Al414   1.898       .  S
O407        C416   1.264       .  A
O407       Al414   1.930       .  S
O408       Al414   1.917       .  S
O409        C416   1.260       .  A
O410       Al414   1.783       .  S
O411        C412   1.253       .  A
C412       C4164   1.474       .  S
C413       C4184   1.473       .  S
C416       C4174   1.474       .  S
C417        O418   1.277       .  A
C417       C4194   1.492       .  S
O419        C434   1.270       .  A
O419       Al427   1.978       .  S
C420        O430   1.251       .  A
C420        O421   1.253       .  A
C420       C4957   1.467       .  S
O421       Al423   1.901       .  S
O422        C424   1.260       .  A
O422       Al423   1.848       .  S
Al423       O431   1.875       .  S
Al423       O433   1.886       .  S
Al423       O432   1.771       .  S
C424        O437   1.279       .  A
C424       C4857   1.466       .  S
O425        C435   1.266       .  A
O425       Al427   1.937       .  S
O426        C439   1.256       .  A
O426       Al436   1.868       .  S
Al427       O440   1.952       .  S
Al427       O437   1.977       .  S
Al427       O432   1.780       .  S
O428        C435   1.257       .  A
O428       Al436   1.873       .  S
O429        C438   1.270       .  A
O429       Al436   1.933       .  S
O430       Al436   1.891       .  S
O431        C438   1.266       .  A
O432       Al436   1.765       .  S
O433        C434   1.250       .  A
C434       C4877   1.492       .  S
C435       C4197   1.480       .  S
C438       C4357   1.474       .  S
C439        O440   1.269       .  A
C439       C4144   1.477       .  S
O441        C456   1.273       .  A
O441       Al449   1.957       .  S
C442        O452   1.257       .  A
C442        O443   1.266       .  A
C442       C4177   1.464       .  S
O443       Al445   1.923       .  S
O444        C446   1.249       .  A
O444       Al445   1.851       .  S
Al445       O453   1.873       .  S
Al445       O455   1.913       .  S
Al445       O454   1.759       .  S
C446        O459   1.275       .  A
C446       C4124   1.503       .  S
O447        C457   1.273       .  A
O447       Al449   1.962       .  S
O448        C461   1.257       .  A
O448       Al458   1.870       .  S
Al449       O462   1.979       .  S
Al449       O459   1.990       .  S
Al449       O454   1.784       .  S
O450        C457   1.266       .  A
O450       Al458   1.919       .  S
O451        C460   1.263       .  A
O451       Al458   1.929       .  S
O452       Al458   1.888       .  S
O453        C460   1.252       .  A
O454       Al458   1.773       .  S
O455        C456   1.263       .  A
C456       C4134   1.494       .  S
C457       C4977   1.498       .  S
C460       C4247   1.484       .  S
C461        O462   1.276       .  A
C461       C4327   1.485       .  S
O463        C478   1.257       .  A
O463       Al471   1.922       .  S
C464        O474   1.266       .  A
C464        O465   1.261       .  A
C464       C4094   1.464       .  S
O465       Al467   1.886       .  S
O466        C468   1.256       .  A
O466       Al467   1.862       .  S
Al467       O475   1.898       .  S
Al467       O477   1.854       .  S
Al467       O476   1.777       .  S
C468        O481   1.270       .  A
C468       C4157   1.476       .  S
O469        C479   1.257       .  A
O469       Al471   1.920       .  S
O470        C483   1.265       .  A
O470       Al480   1.878       .  S
Al471       O484   1.951       .  S
Al471       O481   1.953       .  S
Al471       O476   1.799       .  S
O472        C479   1.253       .  A
O472       Al480   1.885       .  S
O473        C482   1.257       .  A
O473       Al480   1.911       .  S
O474       Al480   1.913       .  S
O475        C482   1.255       .  A
O476       Al480   1.790       .  S
O477        C478   1.249       .  A
C478       C4217   1.466       .  S
C479       C4104   1.475       .  S
C482       C4087   1.468       .  S
C483        O484   1.275       .  A
C483       C4114   1.478       .  S
O485        C500   1.262       .  A
O485       Al493   1.911       .  S
C486        O496   1.257       .  A
C486        O487   1.263       .  A
C486       C4074   1.466       .  S
O487       Al489   1.906       .  S
O488        C490   1.251       .  A
O488       Al489   1.877       .  S
Al489       O497   1.883       .  S
Al489       O499   1.927       .  S
Al489       O498   1.758       .  S
C490        O503   1.270       .  A
C490       C4127   1.477       .  S
O491        C501   1.271       .  A
O491       Al493   1.935       .  S
O492        C505   1.258       .  A
O492       Al502   1.876       .  S
Al493       O506   1.939       .  S
Al493       O503   1.973       .  S
Al493       O498   1.791       .  S
O494        C501   1.261       .  A
O494       Al502   1.874       .  S
O495        C504   1.261       .  A
O495       Al502   1.911       .  S
O496       Al502   1.894       .  S
O497        C504   1.256       .  A
O498       Al502   1.771       .  S
O499        C500   1.266       .  A
C500       C4167   1.475       .  S
C501       C4054   1.469       .  S
C504       C4097   1.483       .  S
C505        O506   1.268       .  A
C505       C4064   1.477       .  S
O507        C522   1.267       .  A
O507       Al515   1.949       .  S
C508        O518   1.262       .  A
C508        O509   1.257       .  A
C508       C4287   1.472       .  S
O509       Al511   1.894       .  S
O510        C512   1.260       .  A
O510       Al511   1.873       .  S
Al511       O519   1.907       .  S
Al511       O521   1.878       .  S
Al511       O520   1.765       .  S
C512        O525   1.271       .  A
C512       C4377   1.492       .  S
O513        C523   1.266       .  A
O513       Al515   1.935       .  S
O514        C527   1.259       .  A
O514       Al524   1.877       .  S
Al515       O528   1.937       .  S
Al515       O525   1.966       .  S
Al515       O520   1.790       .  S
O516        C523   1.257       .  A
O516       Al524   1.889       .  S
O517        C526   1.262       .  A
O517       Al524   1.910       .  S
O518       Al524   1.913       .  S
O519        C526   1.263       .  A
O520       Al524   1.773       .  S
O521        C522   1.254       .  A
C522       C4307   1.477       .  S
C523       C4044   1.474       .  S
C526       C4797   1.488       .  S
C527        O528   1.268       .  A
C527       C4034   1.458       .  S
O529        C544   1.275       .  A
O529       Al537   1.977       .  S
C530        O540   1.251       .  A
C530        O531   1.251       .  A
C530       C4024   1.466       .  S
O531       Al533   1.881       .  S
O532        C534   1.259       .  A
O532       Al533   1.877       .  S
Al533       O541   1.859       .  S
Al533       O543   1.861       .  S
Al533       O542   1.753       .  S
C534        O547   1.271       .  A
C534       C4004   1.480       .  S
O535        C545   1.262       .  A
O535       Al537   1.903       .  S
O536        C549   1.257       .  A
O536       Al546   1.892       .  S
Al537       O550   1.950       .  S
Al537       O547   1.967       .  S
Al537       O542   1.800       .  S
O538        C545   1.267       .  A
O538       Al546   1.893       .  S
O539        C548   1.272       .  A
O539       Al546   1.958       .  S
O540       Al546   1.900       .  S
O541        C548   1.259       .  A
O542       Al546   1.779       .  S
O543        C544   1.253       .  A
C544       C3994   1.499       .  S
C545       C4294   1.466       .  S
C548       C4014   1.479       .  S
C549        O550   1.266       .  A
C549       C4677   1.486       .  S
O551        C566   1.263       .  A
O551       Al559   1.930       .  S
C552        O562   1.264       .  A
C552        O553   1.260       .  A
C552       C3954   1.466       .  S
O553       Al555   1.882       .  S
O554        C556   1.251       .  A
O554       Al555   1.855       .  S
Al555       O563   1.900       .  S
Al555       O565   1.892       .  S
Al555       O564   1.778       .  S
C556        O569   1.273       .  A
C556       C3974   1.486       .  S
O557        C567   1.268       .  A
O557       Al559   1.950       .  S
O558        C571   1.263       .  A
O558       Al568   1.883       .  S
Al559       O572   1.957       .  S
Al559       O569   1.978       .  S
Al559       O564   1.792       .  S
O560        C567   1.250       .  A
O560       Al568   1.851       .  S
O561        C570   1.249       .  A
O561       Al568   1.870       .  S
O562       Al568   1.914       .  S
O563        C570   1.258       .  A
O564       Al568   1.784       .  S
O565        C566   1.256       .  A
C566       C3944   1.478       .  S
C567       C3984   1.477       .  S
C570       C3964   1.449       .  S
C571        O572   1.272       .  A
C571       C4107   1.492       .  S
O573        C588   1.252       .  A
O573       Al581   1.915       .  S
C574        O584   1.262       .  A
C574        O575   1.249       .  A
C574       C3904   1.482       .  S
O575       Al577   1.866       .  S
O576        C578   1.260       .  A
O576       Al577   1.870       .  S
Al577       O585   1.905       .  S
Al577       O587   1.854       .  S
Al577       O586   1.764       .  S
C578        O591   1.267       .  A
C578       C3914   1.467       .  S
O579        C589   1.251       .  A
O579       Al581   1.868       .  S
O580        C593   1.259       .  A
O580       Al590   1.878       .  S
Al581       O594   1.896       .  S
Al581       O591   1.937       .  S
Al581       O586   1.811       .  S
O582        C589   1.263       .  A
O582       Al590   1.906       .  S
O583        C592   1.269       .  A
O583       Al590   1.935       .  S
O584       Al590   1.933       .  S
O585        C592   1.267       .  A
O586       Al590   1.782       .  S
O587        C588   1.256       .  A
C588       C3924   1.473       .  S
C589       C3887   1.457       .  S
C592       C3934   1.488       .  S
C593        O594   1.259       .  A
C593       C3897   1.464       .  S
O595        C610   1.280       .  A
O595       Al603   1.982       .  S
C596        O606   1.276       .  A
C596        O597   1.260       .  A
C596       C3874   1.485       .  S
O597       Al599   1.872       .  S
O598        C600   1.252       .  A
O598       Al599   1.907       .  S
Al599       O607   1.887       .  S
Al599       O609   1.841       .  S
Al599       O608   1.774       .  S
C600        O613   1.259       .  A
C600       C3977   1.488       .  S
O601        C611   1.264       .  A
O601       Al603   1.934       .  S
O602        C615   1.267   1_554  A
O602       Al612   1.926   1_554  S
Al603       O616   1.922       .  S
Al603       O613   1.948       .  S
Al603       O608   1.788       .  S
O604        C611   1.255       .  A
O604       Al612   1.861       .  S
O605        C614   1.258       .  A
O605       Al612   1.929   1_554  S
O606       Al612   1.957       .  S
O607        C614   1.257   1_556  A
O608       Al612   1.781       .  S
O609        C610   1.259       .  A
C610       C3864   1.473       .  S
C611       C3854   1.478       .  S
C614       C3907   1.486       .  S
C615        O616   1.265       .  A
C615       C3844   1.491   1_556  S
O617        C632   1.265       .  A
O617       Al625   1.967       .  S
C618        O628   1.265       .  A
C618        O619   1.252       .  A
C618       C3804   1.471       .  S
O619       Al621   1.860   1_455  S
O620        C622   1.259   1_455  A
O620       Al621   1.873   1_455  S
Al621       O629   1.920       .  S
Al621       O631   1.884       .  S
Al621       O630   1.766       .  S
C622        O635   1.284       .  A
C622       C3824   1.492       .  S
O623        C633   1.269       .  A
O623       Al625   1.940   1_455  S
O624        C637   1.256       .  A
O624       Al634   1.870   1_655  S
Al625       O638   1.964       .  S
Al625       O635   2.006       .  S
Al625       O630   1.789       .  S
O626        C633   1.257       .  A
O626       Al634   1.879       .  S
O627        C636   1.261       .  A
O627       Al634   1.905       .  S
O628       Al634   1.933       .  S
O629        C636   1.267   1_655  A
O630       Al634   1.779   1_655  S
O631        C632   1.252       .  A
C632       C3997   1.490       .  S
C633       C3847   1.476       .  S
C636       C3834   1.473       .  S
C637        O638   1.273       .  A
C637       C3817   1.474       .  S
O639        C654   1.256       .  A
O639       Al647   1.922       .  S
C640        O650   1.269       .  A
C640        O641   1.264       .  A
C640       C3797   1.479       .  S
O641       Al643   1.896       .  S
O642        C644   1.258       .  A
O642       Al643   1.863       .  S
Al643       O651   1.907       .  S
Al643       O653   1.858       .  S
Al643       O652   1.772       .  S
C644        O657   1.269       .  A
C644       C3787   1.475       .  S
O645        C655   1.258       .  A
O645       Al647   1.928       .  S
O646        C659   1.265       .  A
O646       Al656   1.860       .  S
Al647       O660   1.939       .  S
Al647       O657   1.944       .  S
Al647       O652   1.796       .  S
O648        C655   1.248       .  A
O648       Al656   1.866       .  S
O649        C658   1.253       .  A
O649       Al656   1.896       .  S
O650       Al656   1.925       .  S
O651        C658   1.256       .  A
O652       Al656   1.786       .  S
O653        C654   1.248       .  A
C654       C3774   1.468       .  S
C655       C3764   1.474       .  S
C658       C3807   1.453       .  S
C659        O660   1.273       .  A
C659       C3884   1.471       .  S
O661        C676   1.264       .  A
O661       Al669   1.940       .  S
C662        O672   1.257   1_655  A
C662        O663   1.257   1_655  A
C662       C3747   1.470       .  S
O663       Al665   1.898       .  S
O664        C666   1.258       .  A
O664       Al665   1.877       .  S
Al665       O673   1.864   1_455  S
Al665       O675   1.912       .  S
Al665       O674   1.767       .  S
C666        O679   1.275       .  A
C666       C3784   1.476       .  S
O667        C677   1.263       .  A
O667       Al669   1.911       .  S
O668        C681   1.257       .  A
O668       Al678   1.879       .  S
Al669       O682   1.948       .  S
Al669       O679   1.971       .  S
Al669       O674   1.785       .  S
O670        C677   1.262       .  A
O670       Al678   1.894   1_455  S
O671        C680   1.265       .  A
O671       Al678   1.934       .  S
O672       Al678   1.913   1_455  S
O673        C680   1.262       .  A
O674       Al678   1.780   1_455  S
O675        C676   1.259       .  A
C676       C3734   1.483       .  S
C677       C3754   1.466       .  S
C680       C4027   1.480       .  S
C681        O682   1.268   1_655  A
C681       C4047   1.487       .  S
O683        C698   1.258       .  A
O683       Al691   1.938       .  S
C684        O694   1.261       .  A
C684        O685   1.250       .  A
C684       C3967   1.466       .  S
O685       Al687   1.838       .  S
O686        C688   1.261       .  A
O686       Al687   1.867       .  S
Al687       O695   1.913   1_556  S
Al687       O697   1.887   1_556  S
Al687       O696   1.758       .  S
C688        O701   1.280   1_556  A
C688       C3707   1.484       .  S
O689        C699   1.261       .  A
O689       Al691   1.903   1_556  S
O690        C703   1.257   1_556  A
O690       Al700   1.862       .  S
Al691       O704   1.935       .  S
Al691       O701   1.982       .  S
Al691       O696   1.788   1_554  S
O692        C699   1.260       .  A
O692       Al700   1.885       .  S
O693        C702   1.267       .  A
O693       Al700   1.936       .  S
O694       Al700   1.931       .  S
O695        C702   1.271   1_554  A
O696       Al700   1.777       .  S
O697        C698   1.247       .  A
C698       C3927   1.471       .  S
C699       C4067   1.462       .  S
C702       C3714   1.493       .  S
C703        O704   1.266       .  A
C703       C3724   1.474       .  S
O705        C720   1.271       .  A
O705       Al713   1.963       .  S
C706        O716   1.263       .  A
C706        O707   1.262   1_655  A
C706       C3664   1.471       .  S
O707       Al709   1.900       .  S
O708        C710   1.256       .  A
O708       Al709   1.901       .  S
Al709       O717   1.890   1_455  S
Al709       O719   1.864   1_455  S
Al709       O718   1.772       .  S
C710        O723   1.262       .  A
C710       C3644   1.480       .  S
O711        C721   1.263       .  A
O711       Al713   1.923       .  S
O712        C725   1.259       .  A
O712       Al722   1.886       .  S
Al713       O726   1.927   1_455  S
Al713       O723   1.936       .  S
Al713       O718   1.796       .  S
O714        C721   1.260       .  A
O714       Al722   1.889   1_455  S
O715        C724   1.261       .  A
O715       Al722   1.923       .  S
O716       Al722   1.919       .  S
O717        C724   1.255       .  A
O718       Al722   1.779   1_455  S
O719        C720   1.257   1_655  A
C720       C3674   1.472       .  S
C721       C3694   1.468       .  S
C724       C3654   1.475       .  S
C725        O726   1.266       .  A
C725       C3687   1.472       .  S
O727        C742   1.260       .  A
O727       Al735   1.934       .  S
C728        O738   1.261       .  A
C728        O729   1.257       .  A
C728       C4747   1.474       .  S
O729       Al731   1.892   1_556  S
O730        C732   1.255       .  A
O730       Al731   1.846       .  S
Al731       O739   1.866       .  S
Al731       O741   1.907       .  S
Al731       O740   1.769       .  S
C732        O745   1.278       .  A
C732       C4494   1.471       .  S
O733        C743   1.262       .  A
O733       Al735   1.916   1_556  S
O734        C747   1.259       .  A
O734       Al744   1.874   1_554  S
Al735       O748   1.953       .  S
Al735       O745   1.983       .  S
Al735       O740   1.786       .  S
O736        C743   1.259       .  A
O736       Al744   1.890       .  S
O737        C746   1.266       .  A
O737       Al744   1.933       .  S
O738       Al744   1.922       .  S
O739        C746   1.262   1_554  A
O740       Al744   1.779   1_554  S
O741        C742   1.255       .  A
C742       C4537   1.481       .  S
C743       C3684   1.470       .  S
C746       C4437   1.480   1_556  S
C747        O748   1.271       .  A
C747       C3634   1.489       .  S
O749        C764   1.262       .  A
O749       Al757   1.948   1_455  S
C750        O760   1.265       .  A
C750        O751   1.261       .  A
C750       C3627   1.469       .  S
O751       Al753   1.910   1_554  S
O752        C754   1.250       .  A
O752       Al753   1.833   1_655  S
Al753       O761   1.858       .  S
Al753       O763   1.896       .  S
Al753       O762   1.759       .  S
C754        O767   1.280       .  A
C754       C3614   1.498       .  S
O755        C765   1.267   1_556  A
O755       Al757   1.940       .  S
O756        C769   1.264       .  A
O756       Al766   1.880       .  S
Al757       O770   1.949   1_655  S
Al757       O767   1.995       .  S
Al757       O762   1.780   1_655  S
O758        C765   1.259   1_455  A
O758       Al766   1.893   1_554  S
O759        C768   1.264       .  A
O759       Al766   1.950       .  S
O760       Al766   1.926   1_554  S
O761        C768   1.255       .  A
O762       Al766   1.781       .  S
O763        C764   1.252       .  A
C764       C3607   1.487       .  S
C765       C3814   1.488       .  S
C768       C3597   1.476       .  S
C769        O770   1.273       .  A
C769       C3857   1.484       .  S
O771        C786   1.264       .  A
O771       Al779   1.923       .  S
C772        O782   1.256       .  A
C772        O773   1.255       .  A
C772       C3564   1.462       .  S
O773       Al775   1.885   1_556  S
O774        C776   1.253   1_556  A
O774       Al775   1.868   1_556  S
Al775       O783   1.875       .  S
Al775       O785   1.914       .  S
Al775       O784   1.755   1_554  S
C776        O789   1.274       .  A
C776       C3617   1.470       .  S
O777        C787   1.263       .  A
O777       Al779   1.896   1_556  S
O778        C791   1.256       .  A
O778       Al788   1.872   1_554  S
Al779       O792   1.945       .  S
Al779       O789   1.983       .  S
Al779       O784   1.784   1_554  S
O780        C787   1.266       .  A
O780       Al788   1.902       .  S
O781        C790   1.270   1_556  A
O781       Al788   1.931       .  S
O782       Al788   1.896       .  S
O783        C790   1.258       .  A
O784       Al788   1.763       .  S
O785        C786   1.261       .  A
C786       C3584   1.468       .  S
C787       C4837   1.456       .  S
C790       C3574   1.477       .  S
C791        O792   1.268       .  A
C791       C4447   1.479       .  S
O793        C808   1.257       .  A
O793       Al801   1.900   1_455  S
C794        O804   1.267       .  A
C794        O795   1.264       .  A
C794       C3604   1.485       .  S
O795       Al797   1.925       .  S
O796        C798   1.261       .  A
O796       Al797   1.883   1_655  S
Al797       O805   1.893       .  S
Al797       O807   1.906       .  S
Al797       O806   1.771       .  S
C798        O811   1.255       .  A
C798       C3567   1.474       .  S
O799        C809   1.255       .  A
O799       Al801   1.881       .  S
O800        C813   1.270       .  A
O800       Al810   1.926       .  S
Al801       O814   1.881   1_655  S
Al801       O811   1.889       .  S
Al801       O806   1.780   1_655  S
O802        C809   1.263   1_455  A
O802       Al810   1.935       .  S
O803        C812   1.268       .  A
O803       Al810   1.958       .  S
O804       Al810   1.933       .  S
O805        C812   1.257       .  A
O806       Al810   1.789       .  S
O807        C808   1.260       .  A
C808       C3557   1.471       .  S
C809       C3524   1.483       .  S
C812       C3547   1.479       .  S
C813        O814   1.261       .  A
C813       C3537   1.462       .  S
O815        C830   1.271       .  A
O815       Al823   1.925       .  S
C816        O826   1.257       .  A
C816        O817   1.256       .  A
C816       C3484   1.468       .  S
O817       Al819   1.886       .  S
O818        C820   1.254       .  A
O818       Al819   1.892       .  S
Al819       O827   1.869       .  S
Al819       O829   1.924       .  S
Al819       O828   1.756       .  S
C820        O833   1.264       .  A
C820       C3504   1.465       .  S
O821        C831   1.267       .  A
O821       Al823   1.897       .  S
O822        C835   1.253       .  A
O822       Al832   1.899       .  S
Al823       O836   1.928       .  S
Al823       O833   1.946       .  S
Al823       O828   1.793       .  S
O824        C831   1.270       .  A
O824       Al832   1.909       .  S
O825        C834   1.260       .  A
O825       Al832   1.909       .  S
O826       Al832   1.909       .  S
O827        C834   1.261       .  A
O828       Al832   1.774       .  S
O829        C830   1.268       .  A
C830       C3494   1.474       .  S
C831       C3894   1.452       .  S
C834       C3514   1.480       .  S
C835        O836   1.259       .  A
C835       C3767   1.467       .  S
O837        C852   1.261       .  A
O837       Al845   1.928       .  S
C838        O848   1.264       .  A
C838        O839   1.265       .  A
C838       C3457   1.468       .  S
O839       Al841   1.906       .  S
O840        C842   1.253       .  A
O840       Al841   1.861       .  S
Al841       O849   1.884       .  S
Al841       O851   1.886       .  S
Al841       O850   1.772       .  S
C842        O855   1.271       .  A
C842       C3467   1.479       .  S
O843        C853   1.262       .  A
O843       Al845   1.928       .  S
O844        C857   1.265       .  A
O844       Al854   1.890       .  S
Al845       O858   1.950       .  S
Al845       O855   1.963       .  S
Al845       O850   1.789       .  S
O846        C853   1.259       .  A
O846       Al854   1.913       .  S
O847        C856   1.261       .  A
O847       Al854   1.941       .  S
O848       Al854   1.908       .  S
O849        C856   1.255       .  A
O850       Al854   1.787       .  S
O851        C852   1.256       .  A
C852       C3474   1.477       .  S
C853       C3434   1.482       .  S
C856       C3487   1.486       .  S
C857        O858   1.274       .  A
C857       C3447   1.470       .  S
O859        C874   1.253       .  A
O859       Al867   1.913       .  S
C860        O870   1.264       .  A
C860        O861   1.258       .  A
C860       C3517   1.473       .  S
O861       Al863   1.894       .  S
O862        C864   1.257       .  A
O862       Al863   1.876       .  S
Al863       O871   1.897       .  S
Al863       O873   1.860       .  S
Al863       O872   1.768       .  S
C864        O877   1.273       .  A
C864       C3424   1.487       .  S
O865        C875   1.255       .  A
O865       Al867   1.900       .  S
O866        C879   1.261       .  A
O866       Al876   1.872       .  S
Al867       O880   1.941       .  S
Al867       O877   1.969       .  S
Al867       O872   1.797       .  S
O868        C875   1.254       .  A
O868       Al876   1.879       .  S
O869        C878   1.263       .  A
O869       Al876   1.918       .  S
O870       Al876   1.915       .  S
O871        C878   1.258       .  A
O872       Al876   1.780       .  S
O873        C874   1.255       .  A
C874       C3414   1.467       .  S
C875       C3394   1.459       .  S
C878       C3454   1.485       .  S
C879        O880   1.271       .  A
C879       C3404   1.482       .  S
O881        C896   1.267       .  A
O881       Al889   1.934       .  S
C882        O892   1.262       .  A
C882        O883   1.257       .  A
C882       C3937   1.475       .  S
O883       Al885   1.899   1_554  S
O884        C886   1.254       .  A
O884       Al885   1.873       .  S
Al885       O893   1.872       .  S
Al885       O895   1.917       .  S
Al885       O894   1.769       .  S
C886        O899   1.270       .  A
C886       C3704   1.472       .  S
O887        C897   1.270       .  A
O887       Al889   1.924       .  S
O888        C901   1.263       .  A
O888       Al898   1.897       .  S
Al889       O902   1.940       .  S
Al889       O899   1.966       .  S
Al889       O894   1.787       .  S
O890        C897   1.265   1_554  A
O890       Al898   1.909   1_554  S
O891        C900   1.264       .  A
O891       Al898   1.930       .  S
O892       Al898   1.920   1_554  S
O893        C900   1.259       .  A
O894       Al898   1.773       .  S
O895        C896   1.262       .  A
C896       C3947   1.480       .  S
C897       C3444   1.473   1_556  S
C900       C3877   1.486       .  S
C901        O902   1.263       .  A
C901       C3387   1.496       .  S
O903        C918   1.278       .  A
O903       Al911   2.035       .  S
C904        O914   1.254       .  A
C904        O905   1.243       .  A
C904       C3594   1.470       .  S
O905       Al907   1.878       .  S
O906        C908   1.267       .  A
O906       Al907   1.880       .  S
Al907       O915   1.880   1_556  S
Al907       O917   1.889       .  S
Al907       O916   1.748       .  S
C908        O921   1.287       .  A
C908       C3544   1.491       .  S
O909        C919   1.272       .  A
O909       Al911   1.953       .  S
O910        C923   1.253       .  A
O910       Al920   1.858       .  S
Al911       O924   1.960       .  S
Al911       O921   2.005       .  S
Al911       O916   1.773       .  S
O912        C919   1.262       .  A
O912       Al920   1.883   1_556  S
O913        C922   1.274       .  A
O913       Al920   1.943       .  S
O914       Al920   1.919   1_556  S
O915        C922   1.270       .  A
O916       Al920   1.771   1_556  S
O917        C918   1.242       .  A
C918       C3377   1.520       .  S
C919       C3384   1.488       .  S
C922       C3367   1.478       .  S
C923        O924   1.271   1_554  A
C923       C3437   1.485       .  S
O925        C940   1.259       .  A
O925       Al933   1.919       .  S
C926        O936   1.262       .  A
C926        O927   1.262       .  A
C926       C3364   1.468       .  S
O927       Al929   1.905       .  S
O928        C930   1.258       .  A
O928       Al929   1.878       .  S
Al929       O937   1.923   1_455  S
Al929       O939   1.883   1_455  S
Al929       O938   1.779       .  S
C930        O943   1.274   1_455  A
C930       C3354   1.492       .  S
O931        C941   1.257       .  A
O931       Al933   1.920   1_455  S
O932        C945   1.262   1_455  A
O932       Al942   1.873       .  S
Al933       O946   1.972       .  S
Al933       O943   1.974       .  S
Al933       O938   1.794   1_655  S
O934        C941   1.253       .  A
O934       Al942   1.873       .  S
O935        C944   1.259       .  A
O935       Al942   1.905       .  S
O936       Al942   1.901       .  S
O937        C944   1.264   1_655  A
O938       Al942   1.781       .  S
O939        C940   1.254       .  A
C940       C3587   1.471       .  S
C941       C3407   1.469       .  S
C944       C3624   1.482       .  S
C945        O946   1.277       .  A
C945       C3344   1.491       .  S
O947        C962   1.263       .  A
O947       Al955   1.925       .  S
C948        O958   1.256       .  A
C948        O949   1.259       .  A
C948       C3837   1.457       .  S
O949       Al951   1.900   1_455  S
O950        C952   1.256       .  A
O950       Al951   1.875       .  S
Al951       O959   1.885   1_655  S
Al951       O961   1.925       .  S
Al951       O960   1.773   1_655  S
C952        O965   1.269       .  A
C952       C4007   1.478       .  S
O953        C963   1.267       .  A
O953       Al955   1.921       .  S
O954        C967   1.257       .  A
O954       Al964   1.879       .  S
Al955       O968   1.923   1_655  S
Al955       O965   1.953       .  S
Al955       O960   1.787   1_655  S
O956        C963   1.265   1_455  A
O956       Al964   1.914       .  S
O957        C966   1.265       .  A
O957       Al964   1.928       .  S
O958       Al964   1.888       .  S
O959        C966   1.258       .  A
O960       Al964   1.779       .  S
O961        C962   1.263       .  A
C962       C3737   1.483   1_655  S
C963       C3347   1.478       .  S
C966       C3794   1.489       .  S
C967        O968   1.264       .  A
C967       C3397   1.477       .  S
O969        C984   1.260       .  A
O969       Al977   1.913       .  S
C970        O980   1.265       .  A
C970        O971   1.260       .  A
C970       C3294   1.481   1_545  S
O971       Al973   1.908       .  S
O972        C974   1.253       .  A
O972       Al973   1.856       .  S
Al973       O981   1.894       .  S
Al973       O983   1.920       .  S
Al973       O982   1.778       .  S
C974        O987   1.274       .  A
C974       C3314   1.476       .  S
O975        C985   1.265       .  A
O975       Al977   1.907       .  S
O976        C989   1.258       .  A
O976       Al986   1.894       .  S
Al977       O990   1.952       .  S
Al977       O987   1.978       .  S
Al977       O982   1.791       .  S
O978        C985   1.261       .  A
O978       Al986   1.887       .  S
O979        C988   1.260       .  A
O979       Al986   1.895       .  S
O980       Al986   1.923       .  S
O981        C988   1.261       .  A
O982       Al986   1.769       .  S
O983        C984   1.260       .  A
C984       C3284   1.470       .  S
C985       C3324   1.466       .  S
C988       C3304   1.455       .  S
C989        O990   1.268       .  A
C989       C3334   1.502       .  S
O991       C1006   1.257       .  A
O991       Al999   1.910   1_556  S
C992       O1002   1.260       .  A
C992        O993   1.261       .  A
C992       C3717   1.479       .  S
O993       Al995   1.914       .  S
O994        C996   1.253       .  A
O994       Al995   1.853   1_554  S
Al995      O1003   1.882       .  S
Al995      O1005   1.896       .  S
Al995      O1004   1.768       .  S
C996       O1009   1.267       .  A
C996       C3917   1.464       .  S
O997       C1007   1.259       .  A
O997       Al999   1.897       .  S
O998       C1011   1.259       .  A
O998      Al1008   1.880       .  S
Al999      O1012   1.913   1_554  S
Al999      O1009   1.946       .  S
Al999      O1004   1.798   1_554  S
O1000      C1007   1.263   1_556  A
O1000     Al1008   1.910       .  S
O1001      C1010   1.266       .  A
O1001     Al1008   1.931       .  S
O1002     Al1008   1.906       .  S
O1003      C1010   1.257       .  A
O1004     Al1008   1.773       .  S
O1005      C1006   1.261       .  A
C1006      C3867   1.467       .  S
C1007      C3274   1.465       .  S
C1010      C3957   1.487       .  S
C1011      O1012   1.261       .  A
C1011      C3327   1.453       .  S
O1013      C1028   1.259       .  A
O1013     Al1021   1.926       .  S
C1014      O1024   1.265       .  A
C1014      O1015   1.253       .  A
C1014      C3234   1.485       .  S
O1015     Al1017   1.891       .  S
O1016      C1018   1.273       .  A
O1016     Al1017   1.916       .  S
Al1017     O1025   1.878       .  S
Al1017     O1027   1.867       .  S
Al1017     O1026   1.759       .  S
C1018      O1031   1.273       .  A
C1018      C3244   1.503       .  S
O1019      C1029   1.259       .  A
O1019     Al1021   1.877       .  S
O1020      C1033   1.263       .  A
O1020     Al1030   1.900       .  S
Al1021     O1034   1.903       .  S
Al1021     O1031   1.951       .  S
Al1021     O1026   1.763       .  S
O1022      C1029   1.264       .  A
O1022     Al1030   1.933       .  S
O1023      C1032   1.281       .  A
O1023     Al1030   1.988       .  S
O1024     Al1030   1.962       .  S
O1025      C1032   1.263       .  A
O1026     Al1030   1.791       .  S
O1027      C1028   1.252       .  A
C1028      C3254   1.463       .  S
C1029      C4337   1.486       .  S
C1032      C3264   1.480       .  S
C1033      O1034   1.266       .  A
C1033      C4407   1.464       .  S
O1035      C1050   1.274       .  A
O1035     Al1043   1.977       .  S
C1036      O1046   1.269       .  A
C1036      O1037   1.255       .  A
C1036      C3224   1.474       .  S
O1037     Al1039   1.861       .  S
O1038      C1040   1.260       .  A
O1038     Al1039   1.912       .  S
Al1039     O1047   1.902       .  S
Al1039     O1049   1.861       .  S
Al1039     O1048   1.773       .  S
C1040      O1053   1.270       .  A
C1040      C3214   1.494       .  S
O1041      C1051   1.265       .  A
O1041     Al1043   1.949       .  S
O1042      C1055   1.268       .  A
O1042     Al1052   1.909       .  S
Al1043     O1056   1.929       .  S
Al1043     O1053   1.959       .  S
Al1043     O1048   1.786       .  S
O1044      C1051   1.251       .  A
O1044     Al1052   1.865       .  S
O1045      C1054   1.250       .  A
O1045     Al1052   1.879       .  S
O1046     Al1052   1.920       .  S
O1047      C1054   1.255       .  A
O1048     Al1052   1.771       .  S
O1049      C1050   1.256       .  A
C1050      C3204   1.473       .  S
C1051      C4257   1.489       .  S
C1054      C3257   1.472       .  S
C1055      O1056   1.270       .  A
C1055      C4207   1.481       .  S
O1057      C1072   1.263       .  A
O1057     Al1065   1.951       .  S
C1058      O1068   1.264       .  A
C1058      O1059   1.257       .  A
C1058      C3247   1.495       .  S
O1059     Al1061   1.912       .  S
O1060      C1062   1.261       .  A
O1060     Al1061   1.852       .  S
Al1061     O1069   1.884       .  S
Al1061     O1071   1.904       .  S
Al1061     O1070   1.768       .  S
C1062      O1075   1.274       .  A
C1062      C3187   1.470       .  S
O1063      C1073   1.263       .  A
O1063     Al1065   1.921       .  S
O1064      C1077   1.261       .  A
O1064     Al1074   1.897       .  S
Al1065     O1078   1.920       .  S
Al1065     O1075   1.959       .  S
Al1065     O1070   1.782       .  S
O1066      C1073   1.262       .  A
O1066     Al1074   1.883       .  S
O1067      C1076   1.268       .  A
O1067     Al1074   1.916       .  S
O1068     Al1074   1.940       .  S
O1069      C1076   1.265       .  A
O1070     Al1074   1.766       .  S
O1071      C1072   1.254       .  A
C1072      C3194   1.486       .  S
C1073      C4147   1.479       .  S
C1076      C3227   1.469       .  S
C1077      O1078   1.265       .  A
C1077      C4187   1.474       .  S
O1079      C1094   1.251       .  A
O1079     Al1087   1.905   1_565  S
C1080      O1090   1.260       .  A
C1080      O1081   1.255       .  A
C1080      C3174   1.481   1_554  S
O1081     Al1083   1.905   1_554  S
O1082      C1084   1.260       .  A
O1082     Al1083   1.845       .  S
Al1083     O1091   1.895   1_556  S
Al1083     O1093   1.885   1_545  S
Al1083     O1092   1.772       .  S
C1084      O1097   1.274       .  A
C1084      C3157   1.468       .  S
O1085      C1095   1.252       .  A
O1085     Al1087   1.880       .  S
O1086      C1099   1.263       .  A
O1086     Al1096   1.860       .  S
Al1087     O1100   1.922   1_556  S
Al1087     O1097   1.954       .  S
Al1087     O1092   1.793       .  S
O1088      C1095   1.256       .  A
O1088     Al1096   1.880   1_556  S
O1089      C1098   1.270       .  A
O1089     Al1096   1.941       .  S
O1090     Al1096   1.920       .  S
O1091      C1098   1.269       .  A
O1092     Al1096   1.769   1_556  S
O1093      C1094   1.250       .  A
C1094      C3164   1.462       .  S
C1095      C4487   1.455       .  S
C1098      C3144   1.487       .  S
C1099      O1100   1.264       .  A
C1099      C4627   1.474   1_545  S
O1101      C1116   1.253       .  A
O1101     Al1109   1.894       .  S
C1102      O1112   1.262       .  A
C1102      O1103   1.260       .  A
C1102      C3137   1.474       .  S
O1103     Al1105   1.902       .  S
O1104      C1106   1.254       .  A
O1104     Al1105   1.863       .  S
Al1105     O1113   1.909   1_554  S
Al1105     O1115   1.901       .  S
Al1105     O1114   1.776       .  S
C1106      O1119   1.270       .  A
C1106      C3114   1.478       .  S
O1107      C1117   1.257       .  A
O1107     Al1109   1.896       .  S
O1108      C1121   1.263       .  A
O1108     Al1118   1.900       .  S
Al1109     O1122   1.926       .  S
Al1109     O1119   1.961       .  S
Al1109     O1114   1.795       .  S
O1110      C1117   1.263       .  A
O1110     Al1118   1.905   1_554  S
O1111      C1120   1.266       .  A
O1111     Al1118   1.946       .  S
O1112     Al1118   1.909   1_554  S
O1113      C1120   1.265       .  A
O1114     Al1118   1.775   1_554  S
O1115      C1116   1.258       .  A
C1116      C3167   1.459       .  S
C1117      C3727   1.466       .  S
C1120      C3127   1.505       .  S
C1121      O1122   1.266   1_556  A
C1121      C4057   1.469       .  S
O1123      C1138   1.260       .  A
O1123     Al1131   1.923       .  S
C1124      O1134   1.268   1_545  A
C1124      O1125   1.259       .  A
C1124      C3124   1.493   1_545  S
O1125     Al1127   1.903       .  S
O1126      C1128   1.255       .  A
O1126     Al1127   1.857       .  S
Al1127     O1135   1.895       .  S
Al1127     O1137   1.897       .  S
Al1127     O1136   1.778       .  S
C1128      O1141   1.265       .  A
C1128      C3154   1.459       .  S
O1129      C1139   1.260       .  A
O1129     Al1131   1.910       .  S
O1130      C1143   1.267       .  A
O1130     Al1140   1.916       .  S
Al1131     O1144   1.920       .  S
Al1131     O1141   1.936       .  S
Al1131     O1136   1.797       .  S
O1132      C1139   1.262       .  A
O1132     Al1140   1.905       .  S
O1133      C1142   1.263       .  A
O1133     Al1140   1.922       .  S
O1134     Al1140   1.945   1_565  S
O1135      C1142   1.261       .  A
O1136     Al1140   1.783       .  S
O1137      C1138   1.256       .  A
C1138      C3104   1.472       .  S
C1139      C3074   1.471       .  S
C1142      C3094   1.463       .  S
C1143      O1144   1.262       .  A
C1143      C3084   1.492       .  S
O1145      C1160   1.262       .  A
O1145     Al1153   1.989       .  S
C1146      O1156   1.260       .  A
C1146      O1147   1.240       .  A
C1146      C3064   1.478       .  S
O1147     Al1149   1.845       .  S
O1148      C1150   1.268       .  A
O1148     Al1149   1.868       .  S
Al1149     O1157   1.920       .  S
Al1149     O1159   1.888       .  S
Al1149     O1158   1.758       .  S
C1150      O1163   1.285       .  A
C1150      C3044   1.475       .  S
O1151      C1161   1.260       .  A
O1151     Al1153   1.886       .  S
O1152      C1165   1.257       .  A
O1152     Al1162   1.883       .  S
Al1153     O1166   1.911       .  S
Al1153     O1163   1.989       .  S
Al1153     O1158   1.794       .  S
O1154      C1161   1.264       .  A
O1154     Al1162   1.887       .  S
O1155      C1164   1.274       .  A
O1155     Al1162   1.932       .  S
O1156     Al1162   1.946       .  S
O1157      C1164   1.280       .  A
O1158     Al1162   1.765       .  S
O1159      C1160   1.243       .  A
C1160      C3054   1.490       .  S
C1161      C4577   1.454       .  S
C1164      C3034   1.493       .  S
C1165      O1166   1.259       .  A
C1165      C4527   1.473       .  S
O1167      C1182   1.253       .  A
O1167     Al1175   1.905       .  S
C1168      O1178   1.263       .  A
C1168      O1169   1.257       .  A
C1168      C3037   1.481       .  S
O1169     Al1171   1.894       .  S
O1170      C1172   1.261       .  A
O1170     Al1171   1.876       .  S
Al1171     O1179   1.915       .  S
Al1171     O1181   1.897       .  S
Al1171     O1180   1.780       .  S
C1172      O1185   1.267       .  A
C1172      C3024   1.478       .  S
O1173      C1183   1.255       .  A
O1173     Al1175   1.901       .  S
O1174      C1187   1.262       .  A
O1174     Al1184   1.887       .  S
Al1175     O1188   1.908       .  S
Al1175     O1185   1.939       .  S
Al1175     O1180   1.803       .  S
O1176      C1183   1.254       .  A
O1176     Al1184   1.878       .  S
O1177      C1186   1.260       .  A
O1177     Al1184   1.911       .  S
O1178     Al1184   1.925       .  S
O1179      C1186   1.267       .  A
O1180     Al1184   1.787       .  S
O1181      C1182   1.253       .  A
C1182      C3014   1.472       .  S
C1183      C2997   1.464       .  S
C1186      C3004   1.485       .  S
C1187      O1188   1.264       .  A
C1187      C2987   1.479       .  S
O1189      C1204   1.263       .  A
O1189     Al1197   1.917       .  S
C1190      O1200   1.268       .  A
C1190      O1191   1.253       .  A
C1190      C3007   1.476       .  S
O1191     Al1193   1.871       .  S
O1192      C1194   1.255       .  A
O1192     Al1193   1.885       .  S
Al1193     O1201   1.904       .  S
Al1193     O1203   1.905       .  S
Al1193     O1202   1.778       .  S
C1194      O1207   1.260       .  A
C1194      C2964   1.468       .  S
O1195      C1205   1.267       .  A
O1195     Al1197   1.926       .  S
O1196      C1209   1.266       .  A
O1196     Al1206   1.931       .  S
Al1197     O1210   1.901       .  S
Al1197     O1207   1.930       .  S
Al1197     O1202   1.798       .  S
O1198      C1205   1.262       .  A
O1198     Al1206   1.893       .  S
O1199      C1208   1.257       .  A
O1199     Al1206   1.901       .  S
O1200     Al1206   1.942       .  S
O1201      C1208   1.264       .  A
O1202     Al1206   1.788       .  S
O1203      C1204   1.260       .  A
C1204      C2974   1.471       .  S
C1205      C2947   1.475       .  S
C1208      C3067   1.473       .  S
C1209      O1210   1.259       .  A
C1209      C2957   1.488       .  S
O1211      C1226   1.266       .  A
O1211     Al1219   1.929   1_565  S
C1212      O1222   1.263       .  A
C1212      O1213   1.262       .  A
C1212      C4607   1.472       .  S
O1213     Al1215   1.903       .  S
O1214      C1216   1.249       .  A
O1214     Al1215   1.860       .  S
Al1215     O1223   1.868       .  S
Al1215     O1225   1.932   1_545  S
Al1215     O1224   1.764       .  S
C1216      O1229   1.273       .  A
C1216      C4454   1.482       .  S
O1217      C1227   1.263       .  A
O1217     Al1219   1.916       .  S
O1218      C1231   1.260       .  A
O1218     Al1228   1.886       .  S
Al1219     O1232   1.984       .  S
Al1219     O1229   1.985       .  S
Al1219     O1224   1.789       .  S
O1220      C1227   1.260       .  A
O1220     Al1228   1.895       .  S
O1221      C1230   1.257       .  A
O1221     Al1228   1.907       .  S
O1222     Al1228   1.915       .  S
O1223      C1230   1.255       .  A
O1224     Al1228   1.784       .  S
O1225      C1226   1.267       .  A
C1226      C4697   1.489       .  S
C1227      C2954   1.459       .  S
C1230      C4654   1.447       .  S
C1231      O1232   1.276       .  A
C1231      C2934   1.497       .  S
O1233      C1248   1.263       .  A
O1233     Al1241   1.947       .  S
C1234      O1244   1.265       .  A
C1234      O1235   1.260       .  A
C1234      C3147   1.481       .  S
O1235     Al1237   1.905       .  S
O1236      C1238   1.256       .  A
O1236     Al1237   1.859   1_565  S
Al1237     O1245   1.914       .  S
Al1237     O1247   1.896       .  S
Al1237     O1246   1.780       .  S
C1238      O1251   1.273       .  A
C1238      C3117   1.479       .  S
O1239      C1249   1.266   1_565  A
O1239     Al1241   1.940   1_565  S
O1240      C1253   1.262       .  A
O1240     Al1250   1.891       .  S
Al1241     O1254   1.925       .  S
Al1241     O1251   1.966   1_545  S
Al1241     O1246   1.793       .  S
O1242      C1249   1.257       .  A
O1242     Al1250   1.894       .  S
O1243      C1252   1.261       .  A
O1243     Al1250   1.912       .  S
O1244     Al1250   1.926       .  S
O1245      C1252   1.263       .  A
O1246     Al1250   1.780       .  S
O1247      C1248   1.253       .  A
C1248      C2924   1.487       .  S
C1249      C2937   1.487       .  S
C1252      C2914   1.468       .  S
C1253      O1254   1.267       .  A
C1253      C2944   1.463       .  S
O1255      C1270   1.262       .  A
O1255     Al1263   1.919       .  S
C1256      O1266   1.260       .  A
C1256      O1257   1.260       .  A
C1256      C2917   1.469       .  S
O1257     Al1259   1.909   1_554  S
O1258      C1260   1.257   1_554  A
O1258     Al1259   1.879   1_554  S
Al1259     O1267   1.888       .  S
Al1259     O1269   1.916       .  S
Al1259     O1268   1.770       .  S
C1260      O1273   1.269       .  A
C1260      C2904   1.472       .  S
O1261      C1271   1.266       .  A
O1261     Al1263   1.917   1_554  S
O1262      C1275   1.262       .  A
O1262     Al1272   1.895   1_556  S
Al1263     O1276   1.933       .  S
Al1263     O1273   1.958       .  S
Al1263     O1268   1.788       .  S
O1264      C1271   1.263       .  A
O1264     Al1272   1.888       .  S
O1265      C1274   1.262   1_554  A
O1265     Al1272   1.916       .  S
O1266     Al1272   1.915       .  S
O1267      C1274   1.261       .  A
O1268     Al1272   1.771   1_556  S
O1269      C1270   1.262       .  A
C1270      C3107   1.475       .  S
C1271      C2984   1.468       .  S
C1274      C3177   1.478       .  S
C1275      O1276   1.264       .  A
C1275      C2894   1.489       .  S
O1277      C1292   1.267       .  A
O1277     Al1285   1.975       .  S
C1278      O1288   1.261       .  A
C1278      O1279   1.249       .  A
C1278      C4507   1.474       .  S
O1279     Al1281   1.883       .  S
O1280      C1282   1.260       .  A
O1280     Al1281   1.868       .  S
Al1281     O1289   1.900   1_556  S
Al1281     O1291   1.890       .  S
Al1281     O1290   1.756       .  S
C1282      O1295   1.279       .  A
C1282      C4734   1.477       .  S
O1283      C1293   1.267       .  A
O1283     Al1285   1.931       .  S
O1284      C1297   1.259       .  A
O1284     Al1294   1.875       .  S
Al1285     O1298   1.926       .  S
Al1285     O1295   1.979       .  S
Al1285     O1290   1.783       .  S
O1286      C1293   1.256       .  A
O1286     Al1294   1.868   1_556  S
O1287      C1296   1.268       .  A
O1287     Al1294   1.932       .  S
O1288     Al1294   1.933   1_556  S
O1289      C1296   1.269       .  A
O1290     Al1294   1.770   1_556  S
O1291      C1292   1.246       .  A
C1292      C4427   1.490       .  S
C1293      C2897   1.469       .  S
C1296      C4557   1.486       .  S
C1297      O1298   1.265   1_554  A
C1297      C2994   1.469       .  S
O1299      C1314   1.271       .  A
O1299     Al1307   1.960       .  S
C1300      O1310   1.266       .  A
C1300      O1301   1.260       .  A
C1300      C4017   1.477       .  S
O1301     Al1303   1.881   1_655  S
O1302      C1304   1.262       .  A
O1302     Al1303   1.924       .  S
Al1303     O1311   1.897       .  S
Al1303     O1313   1.873       .  S
Al1303     O1312   1.765       .  S
C1304      O1317   1.266       .  A
C1304      C3827   1.493       .  S
O1305      C1315   1.265       .  A
O1305     Al1307   1.935   1_655  S
O1306      C1319   1.266       .  A
O1306     Al1316   1.915   1_455  S
Al1307     O1320   1.930       .  S
Al1307     O1317   1.944       .  S
Al1307     O1312   1.786       .  S
O1308      C1315   1.255       .  A
O1308     Al1316   1.866       .  S
O1309      C1318   1.259       .  A
O1309     Al1316   1.913   1_455  S
O1310     Al1316   1.937       .  S
O1311      C1318   1.259       .  A
O1312     Al1316   1.777   1_455  S
O1313      C1314   1.259       .  A
C1314      C3777   1.475       .  S
C1315      C2874   1.477       .  S
C1318      C3744   1.467       .  S
C1319      O1320   1.268       .  A
C1319      C2884   1.481       .  S
O1321      C1336   1.260       .  A
O1321     Al1329   1.913       .  S
C1322      O1332   1.262       .  A
C1322      O1323   1.256       .  A
C1322      C4467   1.476       .  S
O1323     Al1325   1.896       .  S
O1324      C1326   1.252       .  A
O1324     Al1325   1.859       .  S
Al1325     O1333   1.863       .  S
Al1325     O1335   1.912       .  S
Al1325     O1334   1.747       .  S
C1326      O1339   1.270       .  A
C1326      C4587   1.464       .  S
O1327      C1337   1.263       .  A
O1327     Al1329   1.898       .  S
O1328      C1341   1.260       .  A
O1328     Al1338   1.876       .  S
Al1329     O1342   1.932       .  S
Al1329     O1339   1.973       .  S
Al1329     O1334   1.795       .  S
O1330      C1337   1.266       .  A
O1330     Al1338   1.901       .  S
O1331      C1340   1.266       .  A
O1331     Al1338   1.940   1_565  S
O1332     Al1338   1.930       .  S
O1333      C1340   1.260   1_545  A
O1334     Al1338   1.769       .  S
O1335      C1336   1.260       .  A
C1336      C4647   1.464       .  S
C1337      C2867   1.459       .  S
C1340      C4704   1.483       .  S
C1341      O1342   1.265       .  A
C1341      C2877   1.481   1_545  S
O1343      C1358   1.259       .  A
O1343     Al1351   1.935       .  S
C1344      O1354   1.261       .  A
C1344      O1345   1.254       .  A
C1344      C2824   1.464       .  S
O1345     Al1347   1.869       .  S
O1346      C1348   1.261       .  A
O1346     Al1347   1.892       .  S
Al1347     O1355   1.928       .  S
Al1347     O1357   1.872       .  S
Al1347     O1356   1.792       .  S
C1348      O1361   1.274       .  A
C1348      C2834   1.495       .  S
O1349      C1359   1.260       .  A
O1349     Al1351   1.937       .  S
O1350      C1363   1.260       .  A
O1350     Al1360   1.866       .  S
Al1351     O1364   1.950       .  S
Al1351     O1361   1.966       .  S
Al1351     O1356   1.806       .  S
O1352      C1359   1.245       .  A
O1352     Al1360   1.850       .  S
O1353      C1362   1.251       .  A
O1353     Al1360   1.879       .  S
O1354     Al1360   1.908       .  S
O1355      C1362   1.264       .  A
O1356     Al1360   1.796       .  S
O1357      C1358   1.249       .  A
C1358      C2844   1.481       .  S
C1359      C2814   1.475       .  S
C1362      C2854   1.478       .  S
C1363      O1364   1.273       .  A
C1363      C2804   1.484       .  S
O1365      C1380   1.262       .  A
O1365     Al1373   1.932       .  S
C1366      O1376   1.261       .  A
C1366      O1367   1.253       .  A
C1366      C2787   1.477       .  S
O1367     Al1369   1.883   1_655  S
O1368      C1370   1.260       .  A
O1368     Al1369   1.867       .  S
Al1369     O1377   1.886       .  S
Al1369     O1379   1.886       .  S
Al1369     O1378   1.763       .  S
C1370      O1383   1.271       .  A
C1370      C2774   1.462       .  S
O1371      C1381   1.261       .  A
O1371     Al1373   1.898       .  S
O1372      C1385   1.259       .  A
O1372     Al1382   1.887       .  S
Al1373     O1386   1.916       .  S
Al1373     O1383   1.952       .  S
Al1373     O1378   1.784       .  S
O1374      C1381   1.264   1_655  A
O1374     Al1382   1.900   1_655  S
O1375      C1384   1.271       .  A
O1375     Al1382   1.929       .  S
O1376     Al1382   1.929   1_655  S
O1377      C1384   1.263       .  A
O1378     Al1382   1.769       .  S
O1379      C1380   1.255       .  A
C1380      C2764   1.470       .  S
C1381      C4037   1.464   1_455  S
C1384      C2794   1.479       .  S
C1385      O1386   1.263       .  A
C1385      C3757   1.482       .  S
O1387      C1402   1.258       .  A
O1387     Al1395   1.912       .  S
C1388      O1398   1.258       .  A
C1388      O1389   1.256       .  A
C1388      C2744   1.459       .  S
O1389     Al1391   1.896       .  S
O1390      C1392   1.257       .  A
O1390     Al1391   1.857       .  S
Al1391     O1399   1.874       .  S
Al1391     O1401   1.913       .  S
Al1391     O1400   1.764       .  S
C1392      O1405   1.275       .  A
C1392      C2754   1.459       .  S
O1393      C1403   1.260       .  A
O1393     Al1395   1.893       .  S
O1394      C1407   1.255       .  A
O1394     Al1404   1.859       .  S
Al1395     O1408   1.930       .  S
Al1395     O1405   1.963       .  S
Al1395     O1400   1.784       .  S
O1396      C1403   1.266       .  A
O1396     Al1404   1.913       .  S
O1397      C1406   1.271       .  A
O1397     Al1404   1.950   1_565  S
O1398     Al1404   1.910       .  S
O1399      C1406   1.264   1_545  A
O1400     Al1404   1.765       .  S
O1401      C1402   1.257       .  A
C1402      C2734   1.467       .  S
C1403      C4477   1.463       .  S
C1406      C2784   1.487       .  S
C1407      O1408   1.265       .  A
C1407      C4817   1.468   1_545  S
O1409      C1424   1.257       .  A
O1409     Al1417   1.900       .  S
C1410      O1420   1.262       .  A
C1410      O1411   1.266       .  A
C1410      C2737   1.466       .  S
O1411     Al1413   1.929   1_655  S
O1412      C1414   1.261   1_655  A
O1412     Al1413   1.894   1_655  S
Al1413     O1421   1.878   1_545  S
Al1413     O1423   1.897       .  S
Al1413     O1422   1.762       .  S
C1414      O1427   1.267       .  A
C1414      C2727   1.485       .  S
O1415      C1425   1.258       .  A
O1415     Al1417   1.900   1_655  S
O1416      C1429   1.268   1_565  A
O1416     Al1426   1.909   1_455  S
Al1417     O1430   1.926       .  S
Al1417     O1427   1.938       .  S
Al1417     O1422   1.768       .  S
O1418      C1425   1.259       .  A
O1418     Al1426   1.899   1_545  S
O1419      C1428   1.264   1_655  A
O1419     Al1426   1.938       .  S
O1420     Al1426   1.902   1_545  S
O1421      C1428   1.257       .  A
O1422     Al1426   1.788   1_445  S
O1423      C1424   1.261       .  A
C1424      C2714   1.460       .  S
C1425      C2704   1.458       .  S
C1428      C2777   1.467       .  S
C1429      O1430   1.271       .  A
C1429      C2694   1.469   1_545  S
O1431      C1446   1.258       .  A
O1431     Al1439   1.895   1_565  S
C1432      O1442   1.260       .  A
C1432      O1433   1.267       .  A
C1432      C2674   1.468       .  S
O1433     Al1435   1.921       .  S
O1434      C1436   1.251       .  A
O1434     Al1435   1.836       .  S
Al1435     O1443   1.865       .  S
Al1435     O1445   1.917       .  S
Al1435     O1444   1.763       .  S
C1436      O1449   1.269       .  A
C1436      C2684   1.490       .  S
O1437      C1447   1.255       .  A
O1437     Al1439   1.891       .  S
O1438      C1451   1.260       .  A
O1438     Al1448   1.875       .  S
Al1439     O1452   1.969       .  S
Al1439     O1449   1.969       .  S
Al1439     O1444   1.794       .  S
O1440      C1447   1.262       .  A
O1440     Al1448   1.906       .  S
O1441      C1450   1.260       .  A
O1441     Al1448   1.937       .  S
O1442     Al1448   1.905       .  S
O1443      C1450   1.252       .  A
O1444     Al1448   1.785       .  S
O1445      C1446   1.264   1_545  A
C1446      C2767   1.470       .  S
C1447      C2657   1.454       .  S
C1450      C2717   1.462       .  S
C1451      O1452   1.275       .  A
C1451      C2664   1.482       .  S
O1453      C1468   1.259   1_655  A
O1453     Al1461   1.929       .  S
C1454      O1464   1.261       .  A
C1454      O1455   1.257       .  A
C1454      C2724   1.488       .  S
O1455     Al1457   1.876       .  S
O1456      C1458   1.275       .  A
O1456     Al1457   1.952   1_655  S
Al1457     O1465   1.913       .  S
Al1457     O1467   1.891       .  S
Al1457     O1466   1.768       .  S
C1458      O1471   1.260       .  A
C1458      C2757   1.470       .  S
O1459      C1469   1.260       .  A
O1459     Al1461   1.910       .  S
O1460      C1473   1.274       .  A
O1460     Al1470   1.941       .  S
Al1461     O1474   1.900   1_655  S
Al1461     O1471   1.880       .  S
Al1461     O1466   1.797   1_655  S
O1462      C1469   1.253       .  A
O1462     Al1470   1.898   1_655  S
O1463      C1472   1.258       .  A
O1463     Al1470   1.890       .  S
O1464     Al1470   1.926       .  S
O1465      C1472   1.264       .  A
O1466     Al1470   1.775       .  S
O1467      C1468   1.254       .  A
C1468      C2647   1.477       .  S
C1469      C2634   1.461       .  S
C1472      C2677   1.469       .  S
C1473      O1474   1.266       .  A
C1473      C2624   1.471       .  S
O1475      C1490   1.278       .  A
O1475     Al1483   1.987       .  S
C1476      O1486   1.267       .  A
C1476      O1477   1.257       .  A
C1476      C2574   1.485       .  S
O1477     Al1479   1.882   1_455  S
O1478      C1480   1.260       .  A
O1478     Al1479   1.916       .  S
Al1479     O1487   1.916       .  S
Al1479     O1489   1.872       .  S
Al1479     O1488   1.768       .  S
C1480      O1493   1.252       .  A
C1480      C2594   1.459       .  S
O1481      C1491   1.273   1_655  A
O1481     Al1483   1.966       .  S
O1482      C1495   1.263   1_455  A
O1482     Al1492   1.903       .  S
Al1483     O1496   1.892       .  S
Al1483     O1493   1.887       .  S
Al1483     O1488   1.784       .  S
O1484      C1491   1.259       .  A
O1484     Al1492   1.879       .  S
O1485      C1494   1.263       .  A
O1485     Al1492   1.919       .  S
O1486     Al1492   1.934       .  S
O1487      C1494   1.263   1_655  A
O1488     Al1492   1.772   1_655  S
O1489      C1490   1.257       .  A
C1490      C2584   1.482       .  S
C1491      C2614   1.497       .  S
C1494      C2607   1.473       .  S
C1495      O1496   1.259       .  A
C1495      C2637   1.455       .  S
O1497      C1512   1.267       .  A
O1497     Al1505   1.953       .  S
C1498      O1508   1.260       .  A
C1498      O1499   1.260       .  A
C1498      C2547   1.469       .  S
O1499     Al1501   1.908       .  S
O1500      C1502   1.255       .  A
O1500     Al1501   1.859       .  S
Al1501     O1509   1.879       .  S
Al1501     O1511   1.909       .  S
Al1501     O1510   1.768       .  S
C1502      O1515   1.278       .  A
C1502      C2554   1.478       .  S
O1503      C1513   1.266       .  A
O1503     Al1505   1.926       .  S
O1504      C1517   1.257       .  A
O1504     Al1514   1.866       .  S
Al1505     O1518   1.972       .  S
Al1505     O1515   1.987       .  S
Al1505     O1510   1.784       .  S
O1506      C1513   1.260       .  A
O1506     Al1514   1.893       .  S
O1507      C1516   1.261       .  A
O1507     Al1514   1.911       .  S
O1508     Al1514   1.907       .  S
O1509      C1516   1.257       .  A
O1510     Al1514   1.780       .  S
O1511      C1512   1.258       .  A
C1512      C2567   1.491       .  S
C1513      C2627   1.470       .  S
C1516      C2827   1.444       .  S
C1517      O1518   1.273       .  A
C1517      C2617   1.491       .  S
O1519      C1534   1.255       .  A
O1519     Al1527   1.894       .  S
C1520      O1530   1.261       .  A
C1520      O1521   1.270       .  A
C1520      C2857   1.463       .  S
O1521     Al1523   1.929       .  S
O1522      C1524   1.253       .  A
O1522     Al1523   1.834       .  S
Al1523     O1531   1.883       .  S
Al1523     O1533   1.900       .  S
Al1523     O1532   1.765       .  S
C1524      O1537   1.264       .  A
C1524      C2534   1.480       .  S
O1525      C1535   1.258       .  A
O1525     Al1527   1.905       .  S
O1526      C1539   1.263       .  A
O1526     Al1536   1.871       .  S
Al1527     O1540   1.927       .  S
Al1527     O1537   1.946       .  S
Al1527     O1532   1.796       .  S
O1528      C1535   1.259       .  A
O1528     Al1536   1.904       .  S
O1529      C1538   1.261       .  A
O1529     Al1536   1.936       .  S
O1530     Al1536   1.895       .  S
O1531      C1538   1.252       .  A
O1532     Al1536   1.781       .  S
O1533      C1534   1.261       .  A
C1534      C2524   1.463       .  S
C1535      C2514   1.464       .  S
C1538      C2544   1.488       .  S
C1539      O1540   1.269       .  A
C1539      C2654   1.464       .  S
O1541      C1556   1.261       .  A
O1541     Al1549   1.939       .  S
C1542      O1552   1.260       .  A
C1542      O1543   1.259       .  A
C1542      C2504   1.477       .  S
O1543     Al1545   1.898       .  S
O1544      C1546   1.256       .  A
O1544     Al1545   1.844   1_565  S
Al1545     O1553   1.876       .  S
Al1545     O1555   1.916       .  S
Al1545     O1554   1.772       .  S
C1546      O1559   1.277       .  A
C1546      C2497   1.470       .  S
O1547      C1557   1.263       .  A
O1547     Al1549   1.915       .  S
O1548      C1561   1.259       .  A
O1548     Al1558   1.878       .  S
Al1549     O1562   1.931       .  S
Al1549     O1559   1.978   1_545  S
Al1549     O1554   1.783       .  S
O1550      C1557   1.262       .  A
O1550     Al1558   1.900       .  S
O1551      C1560   1.270       .  A
O1551     Al1558   1.940       .  S
O1552     Al1558   1.918       .  S
O1553      C1560   1.260       .  A
O1554     Al1558   1.775       .  S
O1555      C1556   1.255       .  A
C1556      C2484   1.485       .  S
C1557      C2667   1.473       .  S
C1560      C2474   1.477       .  S
C1561      O1562   1.267       .  A
C1561      C2517   1.481       .  S
O1563      C1578   1.269       .  A
O1563     Al1571   1.912   1_455  S
C1564      O1574   1.255       .  A
C1564      O1565   1.248       .  A
C1564      C2644   1.471       .  S
O1565     Al1567   1.856       .  S
O1566      C1568   1.253       .  A
O1566     Al1567   1.897   1_655  S
Al1567     O1575   1.858       .  S
Al1567     O1577   1.897       .  S
Al1567     O1576   1.777       .  S
C1568      O1581   1.254       .  A
C1568      C2747   1.479       .  S
O1569      C1579   1.268       .  A
O1569     Al1571   1.870       .  S
O1570      C1583   1.255       .  A
O1570     Al1580   1.926       .  S
Al1571     O1584   1.867   1_655  S
Al1571     O1581   1.907       .  S
Al1571     O1576   1.787   1_655  S
O1572      C1579   1.276   1_455  A
O1572     Al1580   1.937       .  S
O1573      C1582   1.269       .  A
O1573     Al1580   1.943       .  S
O1574     Al1580   1.921       .  S
O1575      C1582   1.256       .  A
O1576     Al1580   1.801       .  S
O1577      C1578   1.267       .  A
C1578      C2797   1.478   1_545  S
C1579      C2864   1.470       .  S
C1582      C2687   1.471       .  S
C1583      O1584   1.246       .  A
C1583      C2887   1.475       .  S
O1585      C1600   1.262       .  A
O1585     Al1593   1.939       .  S
C1586      O1596   1.259       .  A
C1586      O1587   1.259       .  A
C1586      C2434   1.466       .  S
O1587     Al1589   1.908       .  S
O1588      C1590   1.256       .  A
O1588     Al1589   1.861       .  S
Al1589     O1597   1.873       .  S
Al1589     O1599   1.898       .  S
Al1589     O1598   1.768       .  S
C1590      O1603   1.270       .  A
C1590      C2537   1.462       .  S
O1591      C1601   1.267       .  A
O1591     Al1593   1.931       .  S
O1592      C1605   1.259       .  A
O1592     Al1602   1.872       .  S
Al1593     O1606   1.919       .  S
Al1593     O1603   1.952       .  S
Al1593     O1598   1.790       .  S
O1594      C1601   1.260       .  A
O1594     Al1602   1.895       .  S
O1595      C1604   1.265       .  A
O1595     Al1602   1.927       .  S
O1596     Al1602   1.908       .  S
O1597      C1604   1.254       .  A
O1598     Al1602   1.776       .  S
O1599      C1600   1.256       .  A
C1600      C2847   1.482       .  S
C1601      C2464   1.479       .  S
C1604      C2444   1.478       .  S
C1605      O1606   1.265       .  A
C1605      C2457   1.472       .  S
O1607      C1622   1.273       .  A
O1607     Al1615   1.976       .  S
C1608      O1618   1.258       .  A
C1608      O1609   1.262       .  A
C1608      C2447   1.464       .  S
O1609     Al1611   1.900       .  S
O1610      C1612   1.256       .  A
O1610     Al1611   1.858       .  S
Al1611     O1619   1.880       .  S
Al1611     O1621   1.900       .  S
Al1611     O1620   1.759       .  S
C1612      O1625   1.286       .  A
C1612      C2837   1.493       .  S
O1613      C1623   1.270       .  A
O1613     Al1615   1.939       .  S
O1614      C1627   1.252       .  A
O1614     Al1624   1.863       .  S
Al1615     O1628   2.009       .  S
Al1615     O1625   2.019       .  S
Al1615     O1620   1.774       .  S
O1616      C1623   1.262       .  A
O1616     Al1624   1.910       .  S
O1617      C1626   1.267       .  A
O1617     Al1624   1.944       .  S
O1618     Al1624   1.901       .  S
O1619      C1626   1.261       .  A
O1620     Al1624   1.762       .  S
O1621      C1622   1.257       .  A
C1622      C2564   1.501       .  S
C1623      C2414   1.482       .  S
C1626      C2404   1.474       .  S
C1627      O1628   1.279       .  A
C1627      C2424   1.503       .  S
O1629      C1644   1.253       .  A
O1629     Al1637   1.913       .  S
C1630      O1640   1.274       .  A
C1630      O1631   1.256       .  A
C1630      C2407   1.475       .  S
O1631     Al1633   1.877       .  S
O1632      C1634   1.258       .  A
O1632     Al1633   1.867       .  S
Al1633     O1641   1.919       .  S
Al1633     O1643   1.849       .  S
Al1633     O1642   1.777       .  S
C1634      O1647   1.272       .  A
C1634      C2557   1.484       .  S
O1635      C1645   1.256       .  A
O1635     Al1637   1.924       .  S
O1636      C1649   1.271       .  A
O1636     Al1646   1.878       .  S
Al1637     O1650   1.939       .  S
Al1637     O1647   1.957       .  S
Al1637     O1642   1.796       .  S
O1638      C1645   1.248       .  A
O1638     Al1646   1.871       .  S
O1639      C1648   1.256       .  A
O1639     Al1646   1.904       .  S
O1640     Al1646   1.936       .  S
O1641      C1648   1.260       .  A
O1642     Al1646   1.779       .  S
O1643      C1644   1.247       .  A
C1644      C2527   1.462       .  S
C1645      C2384   1.472       .  S
C1648      C2437   1.470       .  S
C1649      O1650   1.273       .  A
C1649      C2394   1.484       .  S
O1651      C1666   1.260       .  A
O1651     Al1659   1.914       .  S
C1652      O1662   1.261       .  A
C1652      O1653   1.258       .  A
C1652      C2367   1.478       .  S
O1653     Al1655   1.900       .  S
O1654      C1656   1.256       .  A
O1654     Al1655   1.865       .  S
Al1655     O1663   1.879       .  S
Al1655     O1665   1.911       .  S
Al1655     O1664   1.770       .  S
C1656      O1669   1.269       .  A
C1656      C3047   1.468       .  S
O1657      C1667   1.261       .  A
O1657     Al1659   1.901       .  S
O1658      C1671   1.261       .  A
O1658     Al1668   1.896       .  S
Al1659     O1672   1.933       .  S
Al1659     O1669   1.956       .  S
Al1659     O1664   1.790       .  S
O1660      C1667   1.263       .  A
O1660     Al1668   1.888       .  S
O1661      C1670   1.265       .  A
O1661     Al1668   1.912       .  S
O1662     Al1668   1.915       .  S
O1663      C1670   1.259       .  A
O1664     Al1668   1.772       .  S
O1665      C1666   1.261       .  A
C1666      C2977   1.469       .  S
C1667      C2354   1.454       .  S
C1670      C2374   1.479       .  S
C1671      O1672   1.262       .  A
C1671      C2467   1.493       .  S
O1673      C1688   1.272       .  A
O1673     Al1681   1.952       .  S
C1674      O1684   1.253       .  A
C1674      O1675   1.248       .  A
C1674      C2347   1.465       .  S
O1675     Al1677   1.862       .  S
O1676      C1678   1.259       .  A
O1676     Al1677   1.881       .  S
Al1677     O1685   1.886       .  S
Al1677     O1687   1.897       .  S
Al1677     O1686   1.755       .  S
C1678      O1691   1.267       .  A
C1678      C3184   1.463       .  S
O1679      C1689   1.265       .  A
O1679     Al1681   1.898       .  S
O1680      C1693   1.251       .  A
O1680     Al1690   1.884       .  S
Al1681     O1694   1.910       .  S
Al1681     O1691   1.943       .  S
Al1681     O1686   1.797       .  S
O1682      C1689   1.271       .  A
O1682     Al1690   1.899       .  S
O1683      C1692   1.267       .  A
O1683     Al1690   1.933       .  S
O1684     Al1690   1.912       .  S
O1685      C1692   1.263       .  A
O1686     Al1690   1.775       .  S
O1687      C1688   1.257       .  A
C1688      C3237   1.485       .  S
C1689      C2454   1.459       .  S
C1692      C2334   1.485       .  S
C1693      O1694   1.255       .  A
C1693      C2357   1.462       .  S
O1695      C1710   1.267       .  A
O1695     Al1703   1.960       .  S
C1696      O1706   1.259       .  A
C1696      O1697   1.257       .  A
C1696      C3097   1.472       .  S
O1697     Al1699   1.895   1_556  S
O1698      C1700   1.261       .  A
O1698     Al1699   1.864       .  S
Al1699     O1707   1.898       .  S
Al1699     O1709   1.898       .  S
Al1699     O1708   1.769       .  S
C1700      O1713   1.275       .  A
C1700      C2907   1.479       .  S
O1701      C1711   1.267       .  A
O1701     Al1703   1.938   1_556  S
O1702      C1715   1.256       .  A
O1702     Al1712   1.862   1_554  S
Al1703     O1716   1.943       .  S
Al1703     O1713   1.971       .  S
Al1703     O1708   1.785       .  S
O1704      C1711   1.260       .  A
O1704     Al1712   1.885       .  S
O1705      C1714   1.263   1_556  A
O1705     Al1712   1.911   1_565  S
O1706     Al1712   1.916       .  S
O1707      C1714   1.267   1_545  A
O1708     Al1712   1.772   1_554  S
O1709      C1710   1.255       .  A
C1710      C2927   1.491       .  S
C1711      C3337   1.484       .  S
C1714      C3134   1.478       .  S
C1715      O1716   1.267       .  A
C1715      C3277   1.480   1_545  S
O1717      C1732   1.256       .  A
O1717     Al1725   1.926       .  S
C1718      O1728   1.255       .  A
C1718      O1719   1.252       .  A
C1718      C2377   1.463       .  S
O1719     Al1721   1.882       .  S
O1720      C1722   1.263       .  A
O1720     Al1721   1.866       .  S
Al1721     O1729   1.911       .  S
Al1721     O1731   1.879       .  S
Al1721     O1730   1.776       .  S
C1722      O1735   1.277       .  A
C1722      C2967   1.476       .  S
O1723      C1733   1.261       .  A
O1723     Al1725   1.918       .  S
O1724      C1737   1.259       .  A
O1724     Al1734   1.843       .  S
Al1725     O1738   1.945       .  S
Al1725     O1735   1.968       .  S
Al1725     O1730   1.797       .  S
O1726      C1733   1.255       .  A
O1726     Al1734   1.870       .  S
O1727      C1736   1.266       .  A
O1727     Al1734   1.926       .  S
O1728     Al1734   1.903       .  S
O1729      C1736   1.272       .  A
O1730     Al1734   1.771       .  S
O1731      C1732   1.248       .  A
C1732      C3017   1.465       .  S
C1733      C2397   1.472       .  S
C1736      C2314   1.493       .  S
C1737      O1738   1.265       .  A
C1737      C2324   1.487       .  S
O1739      C1754   1.266       .  A
O1739     Al1747   1.965       .  S
C1740      O1750   1.262       .  A
C1740      O1741   1.246       .  A
C1740      C2317   1.481       .  S
O1741     Al1743   1.868       .  S
O1742      C1744   1.262       .  A
O1742     Al1743   1.871       .  S
Al1743     O1751   1.900       .  S
Al1743     O1753   1.890       .  S
Al1743     O1752   1.753       .  S
C1744      O1757   1.275       .  A
C1744      C3027   1.469       .  S
O1745      C1755   1.264       .  A
O1745     Al1747   1.903       .  S
O1746      C1759   1.259       .  A
O1746     Al1756   1.894       .  S
Al1747     O1760   1.904       .  S
Al1747     O1757   1.968       .  S
Al1747     O1752   1.791       .  S
O1748      C1755   1.264       .  A
O1748     Al1756   1.891       .  S
O1749      C1758   1.271       .  A
O1749     Al1756   1.944       .  S
O1750     Al1756   1.950       .  S
O1751      C1758   1.268       .  A
O1752     Al1756   1.770       .  S
O1753      C1754   1.248       .  A
C1754      C3057   1.487       .  S
C1755      C2304   1.460       .  S
C1758      C2364   1.494       .  S
C1759      O1760   1.259       .  A
C1759      C2294   1.470       .  S
O1761      C1776   1.260       .  A
O1761     Al1769   1.942       .  S
C1762      O1772   1.263       .  A
C1762      O1763   1.257       .  A
C1762      C2274   1.470       .  S
O1763     Al1765   1.888       .  S
O1764      C1766   1.259       .  A
O1764     Al1765   1.868       .  S
Al1765     O1773   1.905       .  S
Al1765     O1775   1.883       .  S
Al1765     O1774   1.785       .  S
C1766      O1779   1.280       .  A
C1766      C3217   1.496       .  S
O1767      C1777   1.262       .  A
O1767     Al1769   1.933       .  S
O1768      C1781   1.263       .  A
O1768     Al1778   1.885       .  S
Al1769     O1782   1.963       .  S
Al1769     O1779   1.993       .  S
Al1769     O1774   1.789       .  S
O1770      C1777   1.253       .  A
O1770     Al1778   1.880       .  S
O1771      C1780   1.262       .  A
O1771     Al1778   1.918       .  S
O1772     Al1778   1.922       .  S
O1773      C1780   1.266       .  A
O1774     Al1778   1.782       .  S
O1775      C1776   1.250       .  A
C1776      C3197   1.482       .  S
C1777      C2287   1.481       .  S
C1780      C2344   1.485       .  S
C1781      O1782   1.275       .  A
C1781      C2417   1.490       .  S
O1783      C1798   1.260       .  A
O1783     Al1791   1.916       .  S
C1784      O1794   1.261       .  A
C1784      O1785   1.262       .  A
C1784      C2337   1.474       .  S
O1785     Al1787   1.913       .  S
O1786      C1788   1.258       .  A
O1786     Al1787   1.867       .  S
Al1787     O1795   1.902       .  S
Al1787     O1797   1.913       .  S
Al1787     O1796   1.771       .  S
C1788      O1801   1.273       .  A
C1788      C3267   1.474       .  S
O1789      C1799   1.264       .  A
O1789     Al1791   1.913       .  S
O1790      C1803   1.256       .  A
O1790     Al1800   1.859       .  S
Al1791     O1804   1.956       .  S
Al1791     O1801   1.966       .  S
Al1791     O1796   1.794       .  S
O1792      C1799   1.260       .  A
O1792     Al1800   1.896       .  S
O1793      C1802   1.262       .  A
O1793     Al1800   1.904       .  S
O1794     Al1800   1.903       .  S
O1795      C1802   1.261       .  A
O1796     Al1800   1.767       .  S
O1797      C1798   1.261       .  A
C1798      C3207   1.473       .  S
C1799      C2297   1.466       .  S
C1802      C2277   1.483       .  S
C1803      O1804   1.266       .  A
C1803      C2264   1.493       .  S
O1805      C1820   1.262       .  A
O1805     Al1813   1.944       .  S
C1806      O1816   1.270       .  A
C1806      O1807   1.254       .  A
C1806      C2244   1.492       .  S
O1807     Al1809   1.874       .  S
O1808      C1810   1.264       .  A
O1808     Al1809   1.881       .  S
Al1809     O1817   1.919       .  S
Al1809     O1819   1.860       .  S
Al1809     O1818   1.768       .  S
C1810      O1823   1.277       .  A
C1810      C3464   1.499       .  S
O1811      C1821   1.265       .  A
O1811     Al1813   1.950       .  S
O1812      C1825   1.268       .  A
O1812     Al1822   1.889       .  S
Al1813     O1826   1.934       .  S
Al1813     O1823   1.968       .  S
Al1813     O1818   1.775       .  S
O1814      C1821   1.245       .  A
O1814     Al1822   1.853       .  S
O1815      C1824   1.263       .  A
O1815     Al1822   1.923       .  S
O1816     Al1822   1.977       .  S
O1817      C1824   1.265       .  A
O1818     Al1822   1.773       .  S
O1819      C1820   1.245       .  A
C1820      C3417   1.480       .  S
C1821      C2327   1.479       .  S
C1824      C2257   1.475       .  S
C1825      O1826   1.273       .  A
C1825      C2387   1.463       .  S
O1827      C1842   1.278   1_554  A
O1827     Al1835   2.020       .  S
C1828      O1838   1.262       .  A
C1828      O1829   1.259   1_556  A
C1828      C3577   1.479   1_556  S
O1829     Al1831   1.872   1_654  S
O1830      C1832   1.263       .  A
O1830     Al1831   1.929   1_554  S
Al1831     O1839   1.888       .  S
Al1831     O1841   1.887       .  S
Al1831     O1840   1.757       .  S
C1832      O1845   1.269       .  A
C1832      C3357   1.491       .  S
O1833      C1843   1.267   1_455  A
O1833     Al1835   1.954       .  S
O1834      C1847   1.264   1_655  A
O1834     Al1844   1.890       .  S
Al1835     O1848   1.952   1_554  S
Al1835     O1845   1.946       .  S
Al1835     O1840   1.791   1_554  S
O1836      C1843   1.261       .  A
O1836     Al1844   1.887   1_554  S
O1837      C1846   1.260   1_655  A
O1837     Al1844   1.913       .  S
O1838     Al1844   1.918       .  S
O1839      C1846   1.257       .  A
O1840     Al1844   1.768   1_455  S
O1841      C1842   1.256       .  A
C1842      C3374   1.502       .  S
C1843      C3637   1.497       .  S
C1846      C3554   1.466       .  S
C1847      O1848   1.279       .  A
C1847      C3697   1.487       .  S
O1849      C1864   1.263       .  A
O1849     Al1857   1.928       .  S
C1850      O1860   1.260       .  A
C1850      O1851   1.262       .  A
C1850      C2234   1.468       .  S
O1851     Al1853   1.903       .  S
O1852      C1854   1.246       .  A
O1852     Al1853   1.830       .  S
Al1853     O1861   1.887       .  S
Al1853     O1863   1.894       .  S
Al1853     O1862   1.766       .  S
C1854      O1867   1.274       .  A
C1854      C3507   1.487       .  S
O1855      C1865   1.269       .  A
O1855     Al1857   1.935       .  S
O1856      C1869   1.263       .  A
O1856     Al1866   1.880       .  S
Al1857     O1870   1.942       .  S
Al1857     O1867   1.981       .  S
Al1857     O1862   1.782       .  S
O1858      C1865   1.260       .  A
O1858     Al1866   1.900       .  S
O1859      C1868   1.261       .  A
O1859     Al1866   1.918       .  S
O1860     Al1866   1.913       .  S
O1861      C1868   1.255       .  A
O1862     Al1866   1.771       .  S
O1863      C1864   1.258       .  A
C1864      C3477   1.473       .  S
C1865      C2267   1.482       .  S
C1868      C2247   1.461       .  S
C1869      O1870   1.270       .  A
C1869      C2307   1.476       .  S
O1871      C1886   1.267       .  A
O1871     Al1879   1.916       .  S
C1872      O1882   1.259       .  A
C1872      O1873   1.263       .  A
C1872      C2254   1.462       .  S
O1873     Al1875   1.906       .  S
O1874      C1876   1.250       .  A
O1874     Al1875   1.865       .  S
Al1875     O1883   1.892       .  S
Al1875     O1885   1.925       .  S
Al1875     O1884   1.768       .  S
C1876      O1889   1.271       .  A
C1876      C3427   1.488       .  S
O1877      C1887   1.269       .  A
O1877     Al1879   1.945       .  S
O1878      C1891   1.258       .  A
O1878     Al1888   1.878       .  S
Al1879     O1892   1.985       .  S
Al1879     O1889   1.983       .  S
Al1879     O1884   1.791       .  S
O1880      C1887   1.267       .  A
O1880     Al1888   1.915       .  S
O1881      C1890   1.257       .  A
O1881     Al1888   1.913       .  S
O1882     Al1888   1.894       .  S
O1883      C1890   1.257       .  A
O1884     Al1888   1.775       .  S
O1885      C1886   1.268       .  A
C1886      C3497   1.476       .  S
C1887      C2427   1.487       .  S
C1890      C2237   1.465       .  S
C1891      O1892   1.277       .  A
C1891      C2284   1.495       .  S
O1893      C1908   1.257       .  A
O1893     Al1901   1.910       .  S
C1894      O1904   1.265       .  A
C1894      O1895   1.266       .  A
C1894      C4867   1.464       .  S
O1895     Al1897   1.895       .  S
O1896      C1898   1.255       .  A
O1896     Al1897   1.873       .  S
Al1897     O1905   1.916       .  S
Al1897     O1907   1.885       .  S
Al1897     O1906   1.774       .  S
C1898      O1911   1.271       .  A
C1898      C4947   1.488       .  S
O1899      C1909   1.256       .  A
O1899     Al1901   1.919       .  S
O1900      C1913   1.264       .  A
O1900     Al1910   1.863       .  S
Al1901     O1914   1.965       .  S
Al1901     O1911   1.964       .  S
Al1901     O1906   1.790       .  S
O1902      C1909   1.252       .  A
O1902     Al1910   1.885       .  S
O1903      C1912   1.255       .  A
O1903     Al1910   1.910       .  S
O1904     Al1910   1.903       .  S
O1905      C1912   1.259       .  A
O1906     Al1910   1.784       .  S
O1907      C1908   1.255       .  A
C1908      C4347   1.468       .  S
C1909      C3527   1.467       .  S
C1912      C4897   1.469       .  S
C1913      O1914   1.277       .  A
C1913      C2224   1.484       .  S
O1915      C1930   1.267       .  A
O1915     Al1923   1.964       .  S
C1916      O1926   1.256       .  A
C1916      O1917   1.260       .  A
C1916      C4084   1.464       .  S
O1917     Al1919   1.922       .  S
O1918      C1920   1.256       .  A
O1918     Al1919   1.850       .  S
Al1919     O1927   1.875       .  S
Al1919     O1929   1.888       .  S
Al1919     O1928   1.773       .  S
C1920      O1933   1.280       .  A
C1920      C4227   1.501       .  S
O1921      C1931   1.266       .  A
O1921     Al1923   1.947       .  S
O1922      C1935   1.255       .  A
O1922     Al1932   1.861       .  S
Al1923     O1936   1.970       .  S
Al1923     O1933   1.989       .  S
Al1923     O1928   1.787       .  S
O1924      C1931   1.259       .  A
O1924     Al1932   1.900       .  S
O1925      C1934   1.265       .  A
O1925     Al1932   1.935       .  S
O1926     Al1932   1.894       .  S
O1927      C1934   1.260       .  A
O1928     Al1932   1.780       .  S
O1929      C1930   1.252       .  A
C1930      C4137   1.494       .  S
C1931      C2214   1.493       .  S
C1934      C4077   1.477       .  S
C1935      O1936   1.275       .  A
C1935      C3077   1.475       .  S
O1937      C1952   1.256       .  A
O1937     Al1945   1.903       .  S
C1938      O1948   1.265       .  A
C1938      O1939   1.258       .  A
C1938      C2194   1.478       .  S
O1939     Al1941   1.893       .  S
O1940      C1942   1.254       .  A
O1940     Al1941   1.863       .  S
Al1941     O1949   1.910       .  S
Al1941     O1951   1.895       .  S
Al1941     O1950   1.779       .  S
C1942      O1955   1.266       .  A
C1942      C2494   1.471       .  S
O1943      C1953   1.261       .  A
O1943     Al1945   1.914       .  S
O1944      C1957   1.266       .  A
O1944     Al1954   1.906       .  S
Al1945     O1958   1.907       .  S
Al1945     O1955   1.947       .  S
Al1945     O1950   1.797       .  S
O1946      C1953   1.258       .  A
O1946     Al1954   1.888       .  S
O1947      C1956   1.261       .  A
O1947     Al1954   1.919       .  S
O1948     Al1954   1.922       .  S
O1949      C1956   1.265       .  A
O1950     Al1954   1.777       .  S
O1951      C1952   1.256       .  A
C1952      C2204   1.465       .  S
C1953      C4117   1.467       .  S
C1956      C3297   1.493       .  S
C1957      O1958   1.262       .  A
C1957      C3987   1.463       .  S
O1959      C1974   1.255       .  A
O1959     Al1967   1.897       .  S
C1960      O1970   1.265       .  A
C1960      O1961   1.264       .  A
C1960      C2587   1.481       .  S
O1961     Al1963   1.926       .  S
O1962      C1964   1.256       .  A
O1962     Al1963   1.871       .  S
Al1963     O1971   1.859       .  S
Al1963     O1973   1.904       .  S
Al1963     O1972   1.760       .  S
C1964      O1977   1.270       .  A
C1964      C2174   1.488       .  S
O1965      C1975   1.257       .  A
O1965     Al1967   1.883       .  S
O1966      C1979   1.264       .  A
O1966     Al1976   1.907       .  S
Al1967     O1980   1.906       .  S
Al1967     O1977   1.953       .  S
Al1967     O1972   1.772       .  S
O1968      C1975   1.269       .  A
O1968     Al1976   1.956       .  S
O1969      C1978   1.275       .  A
O1969     Al1976   1.984       .  S
O1970     Al1976   1.931       .  S
O1971      C1978   1.253       .  A
O1972     Al1976   1.789       .  S
O1973      C1974   1.261       .  A
C1974      C3657   1.472       .  S
C1975      C4917   1.476       .  S
C1978      C2184   1.478       .  S
C1979      O1980   1.268       .  A
C1979      C4767   1.466       .  S
O1981      C1996   1.265       .  A
O1981     Al1989   1.934       .  S
C1982      O1992   1.257       .  A
C1982      O1983   1.251       .  A
C1982      C2167   1.466       .  S
O1983     Al1985   1.888       .  S
O1984      C1986   1.262       .  A
O1984     Al1985   1.880       .  S
Al1985     O1993   1.858       .  S
Al1985     O1995   1.901       .  S
Al1985     O1994   1.761       .  S
C1986      O1999   1.272       .  A
C1986      C2577   1.483       .  S
O1987      C1997   1.265       .  A
O1987     Al1989   1.893       .  S
O1988      C2001   1.259       .  A
O1988     Al1998   1.897       .  S
Al1989     O2002   1.900       .  S
Al1989     O1999   1.953       .  S
Al1989     O1994   1.769       .  S
O1990      C1997   1.269       .  A
O1990     Al1998   1.937       .  S
O1991      C2000   1.278       .  A
O1991     Al1998   1.982       .  S
O1992     Al1998   1.927       .  S
O1993      C2000   1.257       .  A
O1994     Al1998   1.782       .  S
O1995      C1996   1.255       .  A
C1996      C2157   1.484       .  S
C1997      C2817   1.485       .  S
C2000      C3647   1.473       .  S
C2001      O2002   1.262       .  A
C2001      C2144   1.467       .  S
O2003      C2018   1.256       .  A
O2003     Al2011   1.900       .  S
C2004      O2014   1.262       .  A
C2004      O2005   1.263   1_455  A
C2004      C2604   1.467       .  S
O2005     Al2007   1.909       .  S
O2006      C2008   1.257       .  A
O2006     Al2007   1.870       .  S
Al2007     O2015   1.892   1_655  S
Al2007     O2017   1.920       .  S
Al2007     O2016   1.766       .  S
C2008      O2021   1.270       .  A
C2008      C2187   1.477       .  S
O2009      C2019   1.260       .  A
O2009     Al2011   1.901       .  S
O2010      C2023   1.259       .  A
O2010     Al2020   1.868       .  S
Al2011     O2024   1.942   1_655  S
Al2011     O2021   1.958       .  S
Al2011     O2016   1.788       .  S
O2012      C2019   1.260   1_455  A
O2012     Al2020   1.894       .  S
O2013      C2022   1.261       .  A
O2013     Al2020   1.916       .  S
O2014     Al2020   1.912       .  S
O2015      C2022   1.263       .  A
O2016     Al2020   1.772   1_655  S
O2017      C2018   1.263       .  A
C2018      C3677   1.469       .  S
C2019      C2707   1.456       .  S
C2022      C2154   1.478       .  S
C2023      O2024   1.267       .  A
C2023      C2137   1.484       .  S
O2025      C2040   1.260       .  A
O2025     Al2033   1.930       .  S
C2026      O2036   1.259       .  A
C2026      O2027   1.258       .  A
C2026      C2477   1.476       .  S
O2027     Al2029   1.887       .  S
O2028      C2030   1.260       .  A
O2028     Al2029   1.873       .  S
Al2029     O2037   1.901       .  S
Al2029     O2039   1.901       .  S
Al2029     O2038   1.773       .  S
C2030      O2043   1.278       .  A
C2030      C2124   1.483       .  S
O2031      C2041   1.264       .  A
O2031     Al2033   1.922       .  S
O2032      C2045   1.258       .  A
O2032     Al2042   1.865       .  S
Al2033     O2046   1.941       .  S
Al2033     O2043   1.982       .  S
Al2033     O2038   1.783       .  S
O2034      C2041   1.260       .  A
O2034     Al2042   1.891       .  S
O2035      C2044   1.266       .  A
O2035     Al2042   1.925       .  S
O2036     Al2042   1.912       .  S
O2037      C2044   1.267       .  A
O2038     Al2042   1.773       .  S
O2039      C2040   1.254       .  A
C2040      C3287   1.480       .  S
C2041      C2807   1.478       .  S
C2044      C2114   1.482       .  S
C2045      O2046   1.268       .  A
C2045      C2147   1.485       .  S
O2047      C2062   1.256       .  A
O2047     Al2055   1.919   1_565  S
C2048      O2058   1.260       .  A
C2048      O2049   1.256       .  A
C2048      C2117   1.478       .  S
O2049     Al2051   1.899       .  S
O2050      C2052   1.259       .  A
O2050     Al2051   1.856       .  S
Al2051     O2059   1.899       .  S
Al2051     O2061   1.896   1_545  S
Al2051     O2060   1.776       .  S
C2052      O2065   1.276       .  A
C2052      C3317   1.480       .  S
O2053      C2063   1.258       .  A
O2053     Al2055   1.899       .  S
O2054      C2067   1.259       .  A
O2054     Al2064   1.879       .  S
Al2055     O2068   1.933       .  S
Al2055     O2065   1.974       .  S
Al2055     O2060   1.789       .  S
O2056      C2063   1.260       .  A
O2056     Al2064   1.891       .  S
O2057      C2066   1.270       .  A
O2057     Al2064   1.931       .  S
O2058     Al2064   1.914       .  S
O2059      C2066   1.265       .  A
O2060     Al2064   1.770       .  S
O2061      C2062   1.253       .  A
C2062      C2207   1.468       .  S
C2063      C2134   1.468       .  S
C2066      C2507   1.489       .  S
C2067      O2068   1.267       .  A
C2067      C2697   1.484       .  S
O2069      C2084   1.267       .  A
O2069     Al2077   1.989       .  S
C2070      O2080   1.259       .  A
C2070      O2071   1.241       .  A
C2070      C3307   1.475       .  S
O2071     Al2073   1.853       .  S
O2072      C2074   1.267       .  A
O2072     Al2073   1.882       .  S
Al2073     O2081   1.908       .  S
Al2073     O2083   1.878       .  S
Al2073     O2082   1.777       .  S
C2074      O2087   1.283       .  A
C2074      C2127   1.484       .  S
O2075      C2085   1.270       .  A
O2075     Al2077   1.948       .  S
O2076      C2089   1.261       .  A
O2076     Al2086   1.889       .  S
Al2077     O2090   1.936       .  S
Al2077     O2087   1.989       .  S
Al2077     O2082   1.780       .  S
O2078      C2085   1.257       .  A
O2078     Al2086   1.870       .  S
O2079      C2088   1.271       .  A
O2079     Al2086   1.920       .  S
O2080     Al2086   1.936       .  S
O2081      C2088   1.276       .  A
O2082     Al2086   1.770       .  S
O2083      C2084   1.243       .  A
C2084      C2487   1.498       .  S
C2085      C3087   1.483       .  S
C2088      C2197   1.481   1_545  S
C2089      O2090   1.265       .  A
C2089      C2217   1.496   1_545  S
O2091      C2106   1.256       .  A
O2091     Al2099   1.907       .  S
C2092      O2102   1.265       .  A
C2092      O2093   1.260       .  A
C2092      C2177   1.491       .  S
O2093     Al2095   1.889   1_655  S
O2094      C2096   1.257       .  A
O2094     Al2095   1.870       .  S
Al2095     O2103   1.912       .  S
Al2095     O2105   1.908       .  S
Al2095     O2104   1.775       .  S
C2096      O2109   1.262       .  A
C2096      C2597   1.464       .  S
O2097      C2107   1.258       .  A
O2097     Al2099   1.900   1_655  S
O2098      C2111   1.266       .  A
O2098     Al2108   1.910   1_455  S
Al2099     O2112   1.897       .  S
Al2099     O2109   1.927       .  S
Al2099     O2104   1.799       .  S
O2100      C2107   1.262       .  A
O2100     Al2108   1.902       .  S
O2101      C2110   1.264   1_655  A
O2101     Al2108   1.922       .  S
O2102     Al2108   1.934       .  S
O2103      C2110   1.265       .  A
O2104     Al2108   1.782   1_455  S
O2105      C2106   1.259       .  A
C2106      C2164   1.471       .  S
C2107      C2227   1.470       .  S
C2110      C3667   1.480   1_455  S
C2111      O2112   1.260       .  A
C2111      C3534   1.475       .  S
C2113      C2114   1.401       .  A
C2113      C2118   1.392       .  A
C2113      H2120   1.084       .  S
C2114      C2115   1.417       .  A
C2115      C2116   1.402       .  A
C2115     Br2122   1.921       .  S
C2116      C2117   1.403       .  A
C2116      H2121   1.084       .  S
C2117      C2118   1.414       .  A
C2118     Br2119   1.920       .  S
C2123      C2124   1.406       .  A
C2123      C2128   1.405       .  A
C2123      H2130   1.084       .  S
C2124      C2125   1.404       .  A
C2125      C2126   1.405       .  A
C2125     Br2132   1.906       .  S
C2126      C2127   1.406       .  A
C2126      H2131   1.084       .  S
C2127      C2128   1.405       .  A
C2128     Br2129   1.908       .  S
C2133      C2134   1.404       .  A
C2133      C2138   1.405       .  A
C2133      H2140   1.083       .  S
C2134      C2135   1.404       .  A
C2135      C2136   1.389       .  A
C2135     Br2142   1.919       .  S
C2136      C2137   1.406       .  A
C2136      H2141   1.084       .  S
C2137      C2138   1.415       .  A
C2138     Br2139   1.920       .  S
C2143      C2144   1.402       .  A
C2143      C2148   1.402       .  A
C2143      H2150   1.083       .  S
C2144      C2145   1.402       .  A
C2145      C2146   1.393       .  A
C2145     Br2152   1.919       .  S
C2146      C2147   1.409       .  A
C2146      H2151   1.084       .  S
C2147      C2148   1.414       .  A
C2148     Br2149   1.915       .  S
C2153      C2154   1.397       .  A
C2153      C2158   1.388       .  A
C2153      H2160   1.084       .  S
C2154      C2155   1.414       .  A
C2155      C2156   1.405       .  A
C2155     Br2162   1.920       .  S
C2156      C2157   1.405       .  A
C2156      H2161   1.083       .  S
C2157      C2158   1.420       .  A
C2158     Br2159   1.923       .  S
C2163      C2164   1.402       .  A
C2163      C2168   1.400       .  A
C2163      H2170   1.084       .  S
C2164      C2165   1.405       .  A
C2165      C2166   1.400       .  A
C2165     Br2172   1.908       .  S
C2166      C2167   1.402       .  A
C2166      H2171   1.084       .  S
C2167      C2168   1.407       .  A
C2168     Br2169   1.916       .  S
C2173      C2174   1.409       .  A
C2173      C2178   1.410       .  A
C2173      H2180   1.083       .  S
C2174      C2175   1.417       .  A
C2175      C2176   1.389       .  A
C2175     Br2182   1.929       .  S
C2176      C2177   1.404       .  A
C2176      H2181   1.084       .  S
C2177      C2178   1.414       .  A
C2178     Br2179   1.917       .  S
C2183      C2184   1.409       .  A
C2183      C2188   1.404       .  A
C2183      H2190   1.084       .  S
C2184      C2185   1.407       .  A
C2185      C2186   1.400       .  A
C2185     Br2192   1.911       .  S
C2186      C2187   1.405       .  A
C2186      H2191   1.084       .  S
C2187      C2188   1.406       .  A
C2188     Br2189   1.918       .  S
C2193      C2194   1.401       .  A
C2193      C2198   1.401       .  A
C2193      H2200   1.084       .  S
C2194      C2195   1.416       .  A
C2195      C2196   1.391       .  A
C2195     Br2202   1.920       .  S
C2196      C2197   1.400       .  A
C2196      H2201   1.084   1_565  S
C2197      C2198   1.419       .  A
C2198     Br2199   1.923       .  S
C2203      C2204   1.401       .  A
C2203      C2208   1.397       .  A
C2203      H2210   1.084       .  S
C2204      C2205   1.406       .  A
C2205      C2206   1.401       .  A
C2205     Br2212   1.919       .  S
C2206      C2207   1.404       .  A
C2206      H2211   1.084       .  S
C2207      C2208   1.407       .  A
C2208     Br2209   1.915       .  S
C2213      C2214   1.407       .  A
C2213      C2218   1.414   1_565  A
C2213      H2220   1.083       .  S
C2214      C2215   1.408       .  A
C2215      C2216   1.397       .  A
C2215     Br2222   1.904       .  S
C2216      C2217   1.403       .  A
C2216      H2221   1.084       .  S
C2217      C2218   1.417   1_565  A
C2218     Br2219   1.919       .  S
C2223      C2224   1.408       .  A
C2223      C2228   1.393       .  A
C2223      H2230   1.084       .  S
C2224      C2225   1.412       .  A
C2225      C2226   1.404       .  A
C2225     Br2232   1.913       .  S
C2226      C2227   1.403       .  A
C2226      H2231   1.083       .  S
C2227      C2228   1.403       .  A
C2228     Br2229   1.916       .  S
C2233      C2234   1.398       .  A
C2233      C2238   1.387       .  A
C2233      H2240   1.083       .  S
C2234      C2235   1.412       .  A
C2235      C2236   1.405       .  A
C2235     Br2242   1.918       .  S
C2236      C2237   1.403       .  A
C2236      H2241   1.083       .  S
C2237      C2238   1.406       .  A
C2238     Br2239   1.916       .  S
C2243      C2244   1.409       .  A
C2243      C2248   1.377       .  A
C2243      H2250   1.083       .  S
C2244      C2245   1.415       .  A
C2245      C2246   1.405       .  A
C2245     Br2252   1.899       .  S
C2246      C2247   1.401       .  A
C2246      H2251   1.084       .  S
C2247      C2248   1.403       .  A
C2248     Br2249   1.919       .  S
C2253      C2254   1.400       .  A
C2253      C2258   1.397       .  A
C2253      H2260   1.080       .  S
C2254      C2255   1.405       .  A
C2255      C2256   1.396       .  A
C2255     Br2262   1.918       .  S
C2256      C2257   1.405       .  A
C2256      H2261   1.084       .  S
C2257      C2258   1.406       .  A
C2258     Br2259   1.914       .  S
C2263      C2264   1.402       .  A
C2263      C2268   1.380       .  A
C2263      H2270   1.083       .  S
C2264      C2265   1.416       .  A
C2265      C2266   1.415       .  A
C2265     Br2272   1.917       .  S
C2266      C2267   1.409       .  A
C2266      H2271   1.083       .  S
C2267      C2268   1.412       .  A
C2268     Br2269   1.917       .  S
C2273      C2274   1.405       .  A
C2273      C2278   1.394       .  A
C2273      H2280   1.084       .  S
C2274      C2275   1.402       .  A
C2275      C2276   1.399       .  A
C2275     Br2282   1.918       .  S
C2276      C2277   1.413       .  A
C2276      H2281   1.083       .  S
C2277      C2278   1.413       .  A
C2278     Br2279   1.925       .  S
C2283      C2284   1.408       .  A
C2283      C2288   1.409       .  A
C2283      H2290   1.083       .  S
C2284      C2285   1.418       .  A
C2285      C2286   1.400       .  A
C2285     Br2292   1.920       .  S
C2286      C2287   1.400       .  A
C2286      H2291   1.084       .  S
C2287      C2288   1.409       .  A
C2288     Br2289   1.915       .  S
C2293      C2294   1.402       .  A
C2293      C2298   1.398       .  A
C2293      H2300   1.084       .  S
C2294      C2295   1.407       .  A
C2295      C2296   1.400       .  A
C2295     Br2302   1.919       .  S
C2296      C2297   1.403       .  A
C2296      H2301   1.084       .  S
C2297      C2298   1.407       .  A
C2298     Br2299   1.917       .  S
C2303      C2304   1.400       .  A
C2303      C2308   1.400       .  A
C2303      H2310   1.084       .  S
C2304      C2305   1.403       .  A
C2305      C2306   1.395       .  A
C2305     Br2312   1.920       .  S
C2306      C2307   1.406       .  A
C2306      H2311   1.084       .  S
C2307      C2308   1.414       .  A
C2308     Br2309   1.921       .  S
C2313      C2314   1.399       .  A
C2313      C2318   1.392       .  A
C2313      H2320   1.084       .  S
C2314      C2315   1.424       .  A
C2315      C2316   1.408       .  A
C2315     Br2322   1.921       .  S
C2316      C2317   1.400       .  A
C2316      H2321   1.084       .  S
C2317      C2318   1.416       .  A
C2318     Br2319   1.915       .  S
C2323      C2324   1.397       .  A
C2323      C2328   1.378       .  A
C2323      H2330   1.086       .  S
C2324      C2325   1.414       .  A
C2325      C2326   1.417       .  A
C2325     Br2332   1.915       .  S
C2326      C2327   1.411       .  A
C2326      H2331   1.083       .  S
C2327      C2328   1.415       .  A
C2328     Br2329   1.920       .  S
C2333      C2334   1.405       .  A
C2333      C2338   1.394       .  A
C2333      H2340   1.081       .  S
C2334      C2335   1.414       .  A
C2335      C2336   1.405       .  A
C2335     Br2342   1.920       .  S
C2336      C2337   1.405       .  A
C2336      H2341   1.084       .  S
C2337      C2338   1.407       .  A
C2338     Br2339   1.920       .  S
C2343      C2344   1.404       .  A
C2343      C2348   1.395       .  A
C2343      H2350   1.084       .  S
C2344      C2345   1.422       .  A
C2345      C2346   1.400       .  A
C2345     Br2352   1.923       .  S
C2346      C2347   1.397       .  A
C2346      H2351   1.084       .  S
C2347      C2348   1.405       .  A
C2348     Br2349   1.916       .  S
C2353      C2354   1.392       .  A
C2353      C2358   1.382       .  A
C2353      H2360   1.083       .  S
C2354      C2355   1.405       .  A
C2355      C2356   1.405       .  A
C2355     Br2362   1.916       .  S
C2356      C2357   1.406       .  A
C2356      H2361   1.083       .  S
C2357      C2358   1.406       .  A
C2358     Br2359   1.909       .  S
C2363      C2364   1.407       .  A
C2363      C2368   1.396       .  A
C2363      H2370   1.081       .  S
C2364      C2365   1.419       .  A
C2365      C2366   1.405       .  A
C2365     Br2372   1.920       .  S
C2366      C2367   1.403       .  A
C2366      H2371   1.084       .  S
C2367      C2368   1.408       .  A
C2368     Br2369   1.921       .  S
C2373      C2374   1.412       .  A
C2373      C2378   1.398       .  A
C2373      H2380   1.083       .  S
C2374      C2375   1.415       .  A
C2375      C2376   1.388       .  A
C2375     Br2382   1.926       .  S
C2376      C2377   1.400       .  A
C2376      H2381   1.085       .  S
C2377      C2378   1.403       .  A
C2378     Br2379   1.919       .  S
C2383      C2384   1.404       .  A
C2383      C2388   1.406       .  A
C2383      H2390   1.083       .  S
C2384      C2385   1.411       .  A
C2385      C2386   1.388       .  A
C2385     Br2392   1.905       .  S
C2386      C2387   1.391       .  A
C2386      H2391   1.085       .  S
C2387      C2388   1.407       .  A
C2388     Br2389   1.912       .  S
C2393      C2394   1.400       .  A
C2393      C2398   1.386       .  A
C2393      H2400   1.084       .  S
C2394      C2395   1.417       .  A
C2395      C2396   1.407       .  A
C2395     Br2402   1.921       .  S
C2396      C2397   1.404       .  A
C2396      H2401   1.083       .  S
C2397      C2398   1.409       .  A
C2398     Br2399   1.915       .  S
C2403      C2404   1.395       .  A
C2403      C2408   1.382       .  A
C2403      H2410   1.084       .  S
C2404      C2405   1.411       .  A
C2405      C2406   1.402       .  A
C2405     Br2412   1.904       .  S
C2406      C2407   1.402       .  A
C2406      H2411   1.083       .  S
C2407      C2408   1.422       .  A
C2408     Br2409   1.928       .  S
C2413      C2414   1.403       .  A
C2413      C2418   1.403       .  A
C2413      H2420   1.084       .  S
C2414      C2415   1.411       .  A
C2415      C2416   1.408       .  A
C2415     Br2422   1.917       .  S
C2416      C2417   1.406       .  A
C2416      H2421   1.082       .  S
C2417      C2418   1.413       .  A
C2418     Br2419   1.921       .  S
C2423      C2424   1.416       .  A
C2423      C2428   1.424       .  A
C2423      H2430   1.083       .  S
C2424      C2425   1.423       .  A
C2425      C2426   1.377       .  A
C2425     Br2432   1.924       .  S
C2426      C2427   1.390       .  A
C2426      H2431   1.079       .  S
C2427      C2428   1.413       .  A
C2428     Br2429   1.913       .  S
C2433      C2434   1.405       .  A
C2433      C2438   1.404       .  A
C2433      H2440   1.083       .  S
C2434      C2435   1.404       .  A
C2435      C2436   1.392       .  A
C2435     Br2442   1.918       .  S
C2436      C2437   1.403       .  A
C2436      H2441   1.085       .  S
C2437      C2438   1.405       .  A
C2438     Br2439   1.913       .  S
C2443      C2444   1.411       .  A
C2443      C2448   1.401       .  A
C2443      H2450   1.083       .  S
C2444      C2445   1.417       .  A
C2445      C2446   1.384       .  A
C2445     Br2452   1.925       .  S
C2446      C2447   1.397       .  A
C2446      H2451   1.085       .  S
C2447      C2448   1.405       .  A
C2448     Br2449   1.918       .  S
C2453      C2454   1.399       .  A
C2453      C2458   1.390       .  A
C2453      H2460   1.085       .  S
C2454      C2455   1.403       .  A
C2455      C2456   1.400       .  A
C2455     Br2462   1.918       .  S
C2456      C2457   1.407       .  A
C2456      H2461   1.083       .  S
C2457      C2458   1.411       .  A
C2458     Br2459   1.924       .  S
C2463      C2464   1.402       .  A
C2463      C2468   1.408       .  A
C2463      H2470   1.084       .  S
C2464      C2465   1.408       .  A
C2465      C2466   1.396       .  A
C2465     Br2472   1.913       .  S
C2466      C2467   1.404       .  A
C2466      H2471   1.084       .  S
C2467      C2468   1.420       .  A
C2468     Br2469   1.919       .  S
C2473      C2474   1.409       .  A
C2473      C2478   1.403       .  A
C2473      H2480   1.083       .  S
C2474      C2475   1.415       .  A
C2475      C2476   1.386       .  A
C2475     Br2482   1.928       .  S
C2476      C2477   1.403       .  A
C2476      H2481   1.084       .  S
C2477      C2478   1.410       .  A
C2478     Br2479   1.920       .  S
C2483      C2484   1.396       .  A
C2483      C2488   1.398       .  A
C2483      H2490   1.084       .  S
C2484      C2485   1.410       .  A
C2485      C2486   1.415       .  A
C2485     Br2492   1.913   1_545  S
C2486      C2487   1.410       .  A
C2486      H2491   1.083       .  S
C2487      C2488   1.420       .  A
C2488     Br2489   1.912       .  S
C2493      C2494   1.399       .  A
C2493      C2498   1.401       .  A
C2493      H2500   1.084       .  S
C2494      C2495   1.412       .  A
C2495      C2496   1.402       .  A
C2495     Br2502   1.920       .  S
C2496      C2497   1.400       .  A
C2496      H2501   1.084       .  S
C2497      C2498   1.413       .  A
C2498     Br2499   1.921       .  S
C2503      C2504   1.402       .  A
C2503      C2508   1.394       .  A
C2503      H2510   1.085   1_545  S
C2504      C2505   1.407       .  A
C2505      C2506   1.403       .  A
C2505     Br2512   1.919       .  S
C2506      C2507   1.412       .  A
C2506      H2511   1.083       .  S
C2507      C2508   1.415       .  A
C2508     Br2509   1.920   1_545  S
C2513      C2514   1.399       .  A
C2513      C2518   1.397       .  A
C2513      H2520   1.084       .  S
C2514      C2515   1.404       .  A
C2515      C2516   1.401       .  A
C2515     Br2522   1.917       .  S
C2516      C2517   1.406       .  A
C2516      H2521   1.082       .  S
C2517      C2518   1.414       .  A
C2518     Br2519   1.922       .  S
C2523      C2524   1.403       .  A
C2523      C2528   1.401       .  A
C2523      H2530   1.084       .  S
C2524      C2525   1.401       .  A
C2525      C2526   1.396       .  A
C2525     Br2532   1.913       .  S
C2526      C2527   1.404       .  A
C2526      H2531   1.084       .  S
C2527      C2528   1.403       .  A
C2528     Br2529   1.913       .  S
C2533      C2534   1.399       .  A
C2533      C2538   1.377       .  A
C2533      H2540   1.078       .  S
C2534      C2535   1.411       .  A
C2535      C2536   1.411       .  A
C2535     Br2542   1.913       .  S
C2536      C2537   1.409       .  A
C2536      H2541   1.083       .  S
C2537      C2538   1.402       .  A
C2538     Br2539   1.915       .  S
C2543      C2544   1.409       .  A
C2543      C2548   1.403       .  A
C2543      H2550   1.083       .  S
C2544      C2545   1.416       .  A
C2545      C2546   1.396       .  A
C2545     Br2552   1.919       .  S
C2546      C2547   1.398       .  A
C2546      H2551   1.085       .  S
C2547      C2548   1.406       .  A
C2548     Br2549   1.918       .  S
C2553      C2554   1.409       .  A
C2553      C2558   1.409       .  A
C2553      H2560   1.084       .  S
C2554      C2555   1.408       .  A
C2555      C2556   1.398       .  A
C2555     Br2562   1.916       .  S
C2556      C2557   1.405       .  A
C2556      H2561   1.085       .  S
C2557      C2558   1.407       .  A
C2558     Br2559   1.912       .  S
C2563      C2564   1.411       .  A
C2563      C2568   1.418       .  A
C2563      H2570   1.083       .  S
C2564      C2565   1.416       .  A
C2565      C2566   1.399       .  A
C2565     Br2572   1.911       .  S
C2566      C2567   1.399       .  A
C2566      H2571   1.084       .  S
C2567      C2568   1.412       .  A
C2568     Br2569   1.913       .  S
C2573      C2574   1.409       .  A
C2573      C2578   1.402       .  A
C2573      H2580   1.083       .  S
C2574      C2575   1.416       .  A
C2575      C2576   1.390       .  A
C2575     Br2582   1.924       .  S
C2576      C2577   1.404       .  A
C2576      H2581   1.084       .  S
C2577      C2578   1.411       .  A
C2578     Br2579   1.920       .  S
C2583      C2584   1.408       .  A
C2583      C2588   1.412       .  A
C2583      H2590   1.083       .  S
C2584      C2585   1.410       .  A
C2585      C2586   1.395       .  A
C2585     Br2592   1.908       .  S
C2586      C2587   1.398       .  A
C2586      H2591   1.083       .  S
C2587      C2588   1.409       .  A
C2588     Br2589   1.912       .  S
C2593      C2594   1.401   1_455  A
C2593      C2598   1.396       .  A
C2593      H2600   1.085       .  S
C2594      C2595   1.400       .  A
C2595      C2596   1.395       .  A
C2595     Br2602   1.913       .  S
C2596      C2597   1.404   1_655  A
C2596      H2601   1.084       .  S
C2597      C2598   1.404       .  A
C2598     Br2599   1.907       .  S
C2603      C2604   1.398       .  A
C2603      C2608   1.389       .  A
C2603      H2610   1.085       .  S
C2604      C2605   1.407   1_455  A
C2605      C2606   1.409       .  A
C2605     Br2612   1.917       .  S
C2606      C2607   1.407   1_655  A
C2606      H2611   1.083       .  S
C2607      C2608   1.408       .  A
C2608     Br2609   1.917       .  S
C2613      C2614   1.407       .  A
C2613      C2618   1.411       .  A
C2613      H2620   1.080       .  S
C2614      C2615   1.413       .  A
C2615      C2616   1.397       .  A
C2615     Br2622   1.923       .  S
C2616      C2617   1.406       .  A
C2616      H2621   1.084       .  S
C2617      C2618   1.413       .  A
C2618     Br2619   1.917       .  S
C2623      C2624   1.399       .  A
C2623      C2628   1.397       .  A
C2623      H2630   1.084       .  S
C2624      C2625   1.408       .  A
C2625      C2626   1.404       .  A
C2625     Br2632   1.915       .  S
C2626      C2627   1.403       .  A
C2626      H2631   1.083       .  S
C2627      C2628   1.408       .  A
C2628     Br2629   1.917       .  S
C2633      C2634   1.392       .  A
C2633      C2638   1.382       .  A
C2633      H2640   1.080       .  S
C2634      C2635   1.410       .  A
C2635      C2636   1.400       .  A
C2635     Br2642   1.905       .  S
C2636      C2637   1.398       .  A
C2636      H2641   1.084       .  S
C2637      C2638   1.403       .  A
C2638     Br2639   1.899       .  S
C2643      C2644   1.404   1_655  A
C2643      C2648   1.400       .  A
C2643      H2650   1.083       .  S
C2644      C2645   1.403       .  A
C2645      C2646   1.402       .  A
C2645     Br2652   1.916       .  S
C2646      C2647   1.407       .  A
C2646      H2651   1.084       .  S
C2647      C2648   1.409   1_455  A
C2648     Br2649   1.919       .  S
C2653      C2654   1.402       .  A
C2653      C2658   1.394       .  A
C2653      H2660   1.083       .  S
C2654      C2655   1.410       .  A
C2655      C2656   1.393       .  A
C2655     Br2662   1.923       .  S
C2656      C2657   1.398       .  A
C2656      H2661   1.083       .  S
C2657      C2658   1.403       .  A
C2658     Br2659   1.914       .  S
C2663      C2664   1.404       .  A
C2663      C2668   1.405       .  A
C2663      H2670   1.080       .  S
C2664      C2665   1.411       .  A
C2665      C2666   1.397       .  A
C2665     Br2672   1.912   1_545  S
C2666      C2667   1.399       .  A
C2666      H2671   1.084       .  S
C2667      C2668   1.409       .  A
C2668     Br2669   1.915       .  S
C2673      C2674   1.398       .  A
C2673      C2678   1.397       .  A
C2673      H2680   1.084       .  S
C2674      C2675   1.404       .  A
C2675      C2676   1.401       .  A
C2675     Br2682   1.912       .  S
C2676      C2677   1.403       .  A
C2676      H2681   1.084       .  S
C2677      C2678   1.411       .  A
C2678     Br2679   1.920       .  S
C2683      C2684   1.404       .  A
C2683      C2688   1.384       .  A
C2683      H2690   1.078       .  S
C2684      C2685   1.412       .  A
C2685      C2686   1.414       .  A
C2685     Br2692   1.915       .  S
C2686      C2687   1.410       .  A
C2686      H2691   1.083       .  S
C2687      C2688   1.403       .  A
C2688     Br2689   1.920       .  S
C2693      C2694   1.398   1_545  A
C2693      C2698   1.395       .  A
C2693      H2700   1.083       .  S
C2694      C2695   1.406       .  A
C2695      C2696   1.404       .  A
C2695     Br2702   1.916       .  S
C2696      C2697   1.408   1_565  A
C2696      H2701   1.083       .  S
C2697      C2698   1.414       .  A
C2698     Br2699   1.923       .  S
C2703      C2704   1.396       .  A
C2703      C2708   1.383       .  A
C2703      H2710   1.081   1_655  S
C2704      C2705   1.406       .  A
C2705      C2706   1.403       .  A
C2705     Br2712   1.916       .  S
C2706      C2707   1.404       .  A
C2706      H2711   1.084       .  S
C2707      C2708   1.403       .  A
C2708     Br2709   1.912   1_655  S
C2713      C2714   1.397       .  A
C2713      C2718   1.384       .  A
C2713      H2720   1.084       .  S
C2714      C2715   1.404       .  A
C2715      C2716   1.404       .  A
C2715     Br2722   1.913       .  S
C2716      C2717   1.405       .  A
C2716      H2721   1.080       .  S
C2717      C2718   1.406       .  A
C2718     Br2719   1.914       .  S
C2723      C2724   1.402       .  A
C2723      C2728   1.393       .  A
C2723      H2730   1.084       .  S
C2724      C2725   1.415       .  A
C2725      C2726   1.408       .  A
C2725     Br2732   1.919       .  S
C2726      C2727   1.407       .  A
C2726      H2731   1.083       .  S
C2727      C2728   1.415       .  A
C2728     Br2729   1.922       .  S
C2733      C2734   1.406       .  A
C2733      C2738   1.401       .  A
C2733      H2740   1.084       .  S
C2734      C2735   1.406       .  A
C2735      C2736   1.396       .  A
C2735     Br2742   1.918       .  S
C2736      C2737   1.403       .  A
C2736      H2741   1.084       .  S
C2737      C2738   1.404       .  A
C2738     Br2739   1.916   1_545  S
C2743      C2744   1.398       .  A
C2743      C2748   1.396       .  A
C2743      H2750   1.081       .  S
C2744      C2745   1.402       .  A
C2745      C2746   1.395       .  A
C2745     Br2752   1.913   1_545  S
C2746      C2747   1.406       .  A
C2746      H2751   1.084       .  S
C2747      C2748   1.412       .  A
C2748     Br2749   1.915       .  S
C2753      C2754   1.393       .  A
C2753      C2758   1.391       .  A
C2753      H2760   1.084       .  S
C2754      C2755   1.410       .  A
C2755      C2756   1.402       .  A
C2755     Br2762   1.916       .  S
C2756      C2757   1.400       .  A
C2756      H2761   1.083       .  S
C2757      C2758   1.409       .  A
C2758     Br2759   1.900       .  S
C2763      C2764   1.401       .  A
C2763      C2768   1.391       .  A
C2763      H2770   1.085       .  S
C2764      C2765   1.410       .  A
C2765      C2766   1.406       .  A
C2765     Br2772   1.917       .  S
C2766      C2767   1.404       .  A
C2766      H2771   1.084       .  S
C2767      C2768   1.405       .  A
C2768     Br2769   1.911       .  S
C2773      C2774   1.399       .  A
C2773      C2778   1.396       .  A
C2773      H2780   1.084       .  S
C2774      C2775   1.409       .  A
C2775      C2776   1.397       .  A
C2775     Br2782   1.920   1_455  S
C2776      C2777   1.401       .  A
C2776      H2781   1.084   1_455  S
C2777      C2778   1.409       .  A
C2778     Br2779   1.918       .  S
C2783      C2784   1.403       .  A
C2783      C2788   1.388       .  A
C2783      H2790   1.084       .  S
C2784      C2785   1.416       .  A
C2785      C2786   1.406       .  A
C2785     Br2792   1.918       .  S
C2786      C2787   1.404       .  A
C2786      H2791   1.083       .  S
C2787      C2788   1.412       .  A
C2788     Br2789   1.923       .  S
C2793      C2794   1.408       .  A
C2793      C2798   1.400       .  A
C2793      H2800   1.083       .  S
C2794      C2795   1.413       .  A
C2795      C2796   1.391       .  A
C2795     Br2802   1.926       .  S
C2796      C2797   1.406       .  A
C2796      H2801   1.084   1_565  S
C2797      C2798   1.409       .  A
C2798     Br2799   1.919       .  S
C2803      C2804   1.406       .  A
C2803      C2808   1.407       .  A
C2803      H2810   1.083       .  S
C2804      C2805   1.414       .  A
C2805      C2806   1.395       .  A
C2805     Br2812   1.923       .  S
C2806      C2807   1.401       .  A
C2806      H2811   1.084       .  S
C2807      C2808   1.410       .  A
C2808     Br2809   1.913       .  S
C2813      C2814   1.405       .  A
C2813      C2818   1.407       .  A
C2813      H2820   1.084       .  S
C2814      C2815   1.409       .  A
C2815      C2816   1.397       .  A
C2815     Br2822   1.914       .  S
C2816      C2817   1.403       .  A
C2816      H2821   1.084       .  S
C2817      C2818   1.414       .  A
C2818     Br2819   1.918       .  S
C2823      C2824   1.407       .  A
C2823      C2828   1.402       .  A
C2823      H2830   1.081       .  S
C2824      C2825   1.416       .  A
C2825      C2826   1.377       .  A
C2825     Br2832   1.927       .  S
C2826      C2827   1.390       .  A
C2826      H2831   1.085       .  S
C2827      C2828   1.402       .  A
C2828     Br2829   1.915       .  S
C2833      C2834   1.403       .  A
C2833      C2838   1.409       .  A
C2833      H2840   1.081       .  S
C2834      C2835   1.413       .  A
C2835      C2836   1.410       .  A
C2835     Br2842   1.915       .  S
C2836      C2837   1.402       .  A
C2836      H2841   1.078       .  S
C2837      C2838   1.415       .  A
C2838     Br2839   1.918       .  S
C2843      C2844   1.406       .  A
C2843      C2848   1.407       .  A
C2843      H2850   1.084       .  S
C2844      C2845   1.407       .  A
C2845      C2846   1.404       .  A
C2845     Br2852   1.916       .  S
C2846      C2847   1.405       .  A
C2846      H2851   1.084       .  S
C2847      C2848   1.408       .  A
C2848     Br2849   1.915       .  S
C2853      C2854   1.404       .  A
C2853      C2858   1.402       .  A
C2853      H2860   1.083       .  S
C2854      C2855   1.421       .  A
C2855      C2856   1.393       .  A
C2855     Br2862   1.925       .  S
C2856      C2857   1.393       .  A
C2856      H2861   1.084       .  S
C2857      C2858   1.404       .  A
C2858     Br2859   1.914       .  S
C2863      C2864   1.403       .  A
C2863      C2868   1.399       .  A
C2863      H2870   1.084       .  S
C2864      C2865   1.412       .  A
C2865      C2866   1.390       .  A
C2865     Br2872   1.919       .  S
C2866      C2867   1.397       .  A
C2866      H2871   1.085       .  S
C2867      C2868   1.405       .  A
C2868     Br2869   1.911       .  S
C2873      C2874   1.403       .  A
C2873      C2878   1.403   1_565  A
C2873      H2880   1.083       .  S
C2874      C2875   1.409       .  A
C2875      C2876   1.392       .  A
C2875     Br2882   1.922       .  S
C2876      C2877   1.404       .  A
C2876      H2881   1.084       .  S
C2877      C2878   1.413   1_565  A
C2878     Br2879   1.914       .  S
C2883      C2884   1.408       .  A
C2883      C2888   1.410       .  A
C2883      H2890   1.083       .  S
C2884      C2885   1.408       .  A
C2885      C2886   1.395   1_565  A
C2885     Br2892   1.911   1_465  S
C2886      C2887   1.401       .  A
C2886      H2891   1.085       .  S
C2887      C2888   1.408   1_545  A
C2888     Br2889   1.915       .  S
C2893      C2894   1.405       .  A
C2893      C2898   1.397       .  A
C2893      H2900   1.084       .  S
C2894      C2895   1.418       .  A
C2895      C2896   1.404       .  A
C2895     Br2902   1.914       .  S
C2896      C2897   1.400       .  A
C2896      H2901   1.084       .  S
C2897      C2898   1.407       .  A
C2898     Br2899   1.919       .  S
C2903      C2904   1.406   1_554  A
C2903      C2908   1.406       .  A
C2903      H2910   1.083       .  S
C2904      C2905   1.405       .  A
C2905      C2906   1.396       .  A
C2905     Br2912   1.914       .  S
C2906      C2907   1.404   1_556  A
C2906      H2911   1.084       .  S
C2907      C2908   1.407       .  A
C2908     Br2909   1.911       .  S
C2913      C2914   1.398       .  A
C2913      C2918   1.391       .  A
C2913      H2920   1.085       .  S
C2914      C2915   1.407       .  A
C2915      C2916   1.407       .  A
C2915     Br2922   1.913       .  S
C2916      C2917   1.405       .  A
C2916      H2921   1.083       .  S
C2917      C2918   1.406       .  A
C2918     Br2919   1.913       .  S
C2923      C2924   1.400       .  A
C2923      C2928   1.401       .  A
C2923      H2930   1.083       .  S
C2924      C2925   1.411       .  A
C2925      C2926   1.413       .  A
C2925     Br2932   1.910   1_545  S
C2926      C2927   1.407       .  A
C2926      H2931   1.083       .  S
C2927      C2928   1.411       .  A
C2928     Br2929   1.910       .  S
C2933      C2934   1.409       .  A
C2933      C2938   1.413       .  A
C2933      H2940   1.083       .  S
C2934      C2935   1.414   1_545  A
C2935      C2936   1.401       .  A
C2935     Br2942   1.913       .  S
C2936      C2937   1.400   1_565  A
C2936      H2941   1.084       .  S
C2937      C2938   1.413       .  A
C2938     Br2939   1.916       .  S
C2943      C2944   1.393       .  A
C2943      C2948   1.385       .  A
C2943      H2950   1.084       .  S
C2944      C2945   1.407       .  A
C2945      C2946   1.409       .  A
C2945     Br2952   1.915       .  S
C2946      C2947   1.408       .  A
C2946      H2951   1.083       .  S
C2947      C2948   1.412       .  A
C2948     Br2949   1.915       .  S
C2953      C2954   1.398       .  A
C2953      C2958   1.395       .  A
C2953      H2960   1.085       .  S
C2954      C2955   1.402       .  A
C2955      C2956   1.400       .  A
C2955     Br2962   1.917       .  S
C2956      C2957   1.410       .  A
C2956      H2961   1.083       .  S
C2957      C2958   1.409       .  A
C2958     Br2959   1.899       .  S
C2963      C2964   1.395       .  A
C2963      C2968   1.393       .  A
C2963      H2970   1.084       .  S
C2964      C2965   1.408       .  A
C2965      C2966   1.406       .  A
C2965     Br2972   1.917       .  S
C2966      C2967   1.404       .  A
C2966      H2971   1.083       .  S
C2967      C2968   1.411       .  A
C2968     Br2969   1.912       .  S
C2973      C2974   1.403       .  A
C2973      C2978   1.403       .  A
C2973      H2980   1.084       .  S
C2974      C2975   1.407       .  A
C2975      C2976   1.396       .  A
C2975     Br2982   1.909       .  S
C2976      C2977   1.398       .  A
C2976      H2981   1.083       .  S
C2977      C2978   1.410       .  A
C2978     Br2979   1.919       .  S
C2983      C2984   1.402       .  A
C2983      C2988   1.393       .  A
C2983      H2990   1.084       .  S
C2984      C2985   1.404       .  A
C2985      C2986   1.401       .  A
C2985     Br2992   1.914       .  S
C2986      C2987   1.408       .  A
C2986      H2991   1.083       .  S
C2987      C2988   1.412       .  A
C2988     Br2989   1.923       .  S
C2993      C2994   1.403       .  A
C2993      C2998   1.400       .  A
C2993      H3000   1.084       .  S
C2994      C2995   1.408       .  A
C2995      C2996   1.396       .  A
C2995     Br3002   1.920       .  S
C2996      C2997   1.401       .  A
C2996      H3001   1.084       .  S
C2997      C2998   1.408       .  A
C2998     Br2999   1.919       .  S
C3003      C3004   1.398       .  A
C3003      C3008   1.396       .  A
C3003      H3010   1.084       .  S
C3004      C3005   1.420       .  A
C3005      C3006   1.405       .  A
C3005     Br3012   1.922       .  S
C3006      C3007   1.401       .  A
C3006      H3011   1.084       .  S
C3007      C3008   1.411       .  A
C3008     Br3009   1.904       .  S
C3013      C3014   1.403       .  A
C3013      C3018   1.401       .  A
C3013      H3020   1.084       .  S
C3014      C3015   1.407       .  A
C3015      C3016   1.398       .  A
C3015     Br3022   1.909       .  S
C3016      C3017   1.401       .  A
C3016      H3021   1.085       .  S
C3017      C3018   1.408       .  A
C3018     Br3019   1.918       .  S
C3023      C3024   1.405       .  A
C3023      C3028   1.398       .  A
C3023      H3030   1.084       .  S
C3024      C3025   1.405       .  A
C3025      C3026   1.402       .  A
C3025     Br3032   1.910       .  S
C3026      C3027   1.406       .  A
C3026      H3031   1.084       .  S
C3027      C3028   1.405       .  A
C3028     Br3029   1.920       .  S
C3033      C3034   1.402       .  A
C3033      C3038   1.394       .  A
C3033      H3040   1.081       .  S
C3034      C3035   1.423       .  A
C3035      C3036   1.405       .  A
C3035     Br3042   1.922       .  S
C3036      C3037   1.400       .  A
C3036      H3041   1.084       .  S
C3037      C3038   1.411       .  A
C3038     Br3039   1.915       .  S
C3043      C3044   1.407       .  A
C3043      C3048   1.398       .  A
C3043      H3050   1.082       .  S
C3044      C3045   1.408       .  A
C3045      C3046   1.401       .  A
C3045     Br3052   1.919       .  S
C3046      C3047   1.405       .  A
C3046      H3051   1.084       .  S
C3047      C3048   1.404       .  A
C3048     Br3049   1.919       .  S
C3053      C3054   1.396       .  A
C3053      C3058   1.362       .  A
C3053      H3060   1.079       .  S
C3054      C3055   1.410       .  A
C3055      C3056   1.423       .  A
C3055     Br3062   1.912       .  S
C3056      C3057   1.417       .  A
C3056      H3061   1.083       .  S
C3057      C3058   1.417       .  A
C3058     Br3059   1.930       .  S
C3063      C3064   1.401       .  A
C3063      C3068   1.405       .  A
C3063      H3070   1.083       .  S
C3064      C3065   1.419       .  A
C3065      C3066   1.388       .  A
C3065     Br3072   1.928       .  S
C3066      C3067   1.395       .  A
C3066      H3071   1.085       .  S
C3067      C3068   1.413       .  A
C3068     Br3069   1.903       .  S
C3073      C3074   1.394       .  A
C3073      C3078   1.390   1_545  A
C3073      H3080   1.080       .  S
C3074      C3075   1.406   1_545  A
C3075      C3076   1.409       .  A
C3075     Br3082   1.915       .  S
C3076      C3077   1.410       .  A
C3076      H3081   1.083       .  S
C3077      C3078   1.407       .  A
C3078     Br3079   1.902   1_565  S
C3083      C3084   1.401       .  A
C3083      C3088   1.398       .  A
C3083      H3090   1.084       .  S
C3084      C3085   1.421       .  A
C3085      C3086   1.409       .  A
C3085     Br3092   1.919       .  S
C3086      C3087   1.402       .  A
C3086      H3091   1.084       .  S
C3087      C3088   1.409       .  A
C3088     Br3089   1.911       .  S
C3093      C3094   1.396       .  A
C3093      C3098   1.387       .  A
C3093      H3100   1.085       .  S
C3094      C3095   1.407       .  A
C3095      C3096   1.407       .  A
C3095     Br3102   1.914       .  S
C3096      C3097   1.407       .  A
C3096      H3101   1.084       .  S
C3097      C3098   1.412       .  A
C3098     Br3099   1.923       .  S
C3103      C3104   1.402       .  A
C3103      C3108   1.401       .  A
C3103      H3110   1.083       .  S
C3104      C3105   1.407       .  A
C3105      C3106   1.401       .  A
C3105     Br3112   1.916       .  S
C3106      C3107   1.402       .  A
C3106      H3111   1.081       .  S
C3107      C3108   1.410       .  A
C3108     Br3109   1.919       .  S
C3113      C3114   1.406       .  A
C3113      C3118   1.403       .  A
C3113      H3120   1.084       .  S
C3114      C3115   1.405       .  A
C3115      C3116   1.404       .  A
C3115     Br3122   1.913       .  S
C3116      C3117   1.408       .  A
C3116      H3121   1.084       .  S
C3117      C3118   1.405       .  A
C3118     Br3119   1.910       .  S
C3123      C3124   1.404       .  A
C3123      C3128   1.412       .  A
C3123      H3130   1.083       .  S
C3124      C3125   1.412       .  A
C3125      C3126   1.399       .  A
C3125     Br3132   1.914   1_565  S
C3126      C3127   1.406       .  A
C3126      H3131   1.084       .  S
C3127      C3128   1.423       .  A
C3128     Br3129   1.920       .  S
C3133      C3134   1.399       .  A
C3133      C3138   1.388       .  A
C3133      H3140   1.084       .  S
C3134      C3135   1.418       .  A
C3135      C3136   1.401       .  A
C3135     Br3142   1.922   1_554  S
C3136      C3137   1.401       .  A
C3136      H3141   1.084   1_554  S
C3137      C3138   1.412       .  A
C3138     Br3139   1.910       .  S
C3143      C3144   1.399       .  A
C3143      C3148   1.388       .  A
C3143      H3150   1.084   1_545  S
C3144      C3145   1.418       .  A
C3145      C3146   1.408       .  A
C3145     Br3152   1.920       .  S
C3146      C3147   1.404       .  A
C3146      H3151   1.083       .  S
C3147      C3148   1.413       .  A
C3148     Br3149   1.910   1_545  S
C3153      C3154   1.406       .  A
C3153      C3158   1.401       .  A
C3153      H3160   1.083       .  S
C3154      C3155   1.402       .  A
C3155      C3156   1.392       .  A
C3155     Br3162   1.920       .  S
C3156      C3157   1.406       .  A
C3156      H3161   1.085       .  S
C3157      C3158   1.403       .  A
C3158     Br3159   1.913   1_545  S
C3163      C3164   1.403   1_554  A
C3163      C3168   1.399       .  A
C3163      H3170   1.084       .  S
C3164      C3165   1.406       .  A
C3165      C3166   1.392       .  A
C3165     Br3172   1.916       .  S
C3166      C3167   1.399   1_556  A
C3166      H3171   1.085       .  S
C3167      C3168   1.403       .  A
C3168     Br3169   1.913       .  S
C3173      C3174   1.405       .  A
C3173      C3178   1.404       .  A
C3173      H3180   1.083   1_556  S
C3174      C3175   1.417       .  A
C3175      C3176   1.389       .  A
C3175     Br3182   1.920       .  S
C3176      C3177   1.399       .  A
C3176      H3181   1.084       .  S
C3177      C3178   1.414       .  A
C3178     Br3179   1.920   1_556  S
C3183      C3184   1.404       .  A
C3183      C3188   1.399       .  A
C3183      H3190   1.084       .  S
C3184      C3185   1.405       .  A
C3185      C3186   1.393       .  A
C3185     Br3192   1.921       .  S
C3186      C3187   1.406       .  A
C3186      H3191   1.085       .  S
C3187      C3188   1.404       .  A
C3188     Br3189   1.913       .  S
C3193      C3194   1.406       .  A
C3193      C3198   1.409       .  A
C3193      H3200   1.084       .  S
C3194      C3195   1.410       .  A
C3195      C3196   1.401       .  A
C3195     Br3202   1.911       .  S
C3196      C3197   1.402       .  A
C3196      H3201   1.084       .  S
C3197      C3198   1.409       .  A
C3198     Br3199   1.910       .  S
C3203      C3204   1.402       .  A
C3203      C3208   1.403       .  A
C3203      H3210   1.082       .  S
C3204      C3205   1.410       .  A
C3205      C3206   1.400       .  A
C3205     Br3212   1.919       .  S
C3206      C3207   1.401       .  A
C3206      H3211   1.084       .  S
C3207      C3208   1.410       .  A
C3208     Br3209   1.919       .  S
C3213      C3214   1.409       .  A
C3213      C3218   1.415       .  A
C3213      H3220   1.084       .  S
C3214      C3215   1.411       .  A
C3215      C3216   1.402       .  A
C3215     Br3222   1.919       .  S
C3216      C3217   1.406       .  A
C3216      H3221   1.084       .  S
C3217      C3218   1.412       .  A
C3218     Br3219   1.909       .  S
C3223      C3224   1.405       .  A
C3223      C3228   1.393       .  A
C3223      H3230   1.083       .  S
C3224      C3225   1.418       .  A
C3225      C3226   1.389       .  A
C3225     Br3232   1.926       .  S
C3226      C3227   1.400       .  A
C3226      H3231   1.084       .  S
C3227      C3228   1.410       .  A
C3228     Br3229   1.922       .  S
C3233      C3234   1.397       .  A
C3233      C3238   1.366       .  A
C3233      H3240   1.082       .  S
C3234      C3235   1.411       .  A
C3235      C3236   1.419       .  A
C3235     Br3242   1.914       .  S
C3236      C3237   1.414       .  A
C3236      H3241   1.083       .  S
C3237      C3238   1.418       .  A
C3238     Br3239   1.928       .  S
C3243      C3244   1.405       .  A
C3243      C3248   1.399       .  A
C3243      H3250   1.082       .  S
C3244      C3245   1.422       .  A
C3245      C3246   1.411       .  A
C3245     Br3252   1.921       .  S
C3246      C3247   1.405       .  A
C3246      H3251   1.083       .  S
C3247      C3248   1.415       .  A
C3248     Br3249   1.922       .  S
C3253      C3254   1.400       .  A
C3253      C3258   1.386       .  A
C3253      H3260   1.084       .  S
C3254      C3255   1.405       .  A
C3255      C3256   1.404       .  A
C3255     Br3262   1.917       .  S
C3256      C3257   1.409       .  A
C3256      H3261   1.083       .  S
C3257      C3258   1.408       .  A
C3258     Br3259   1.919       .  S
C3263      C3264   1.403       .  A
C3263      C3268   1.403       .  A
C3263      H3270   1.084       .  S
C3264      C3265   1.413       .  A
C3265      C3266   1.402       .  A
C3265     Br3272   1.919       .  S
C3266      C3267   1.401       .  A
C3266      H3271   1.084       .  S
C3267      C3268   1.410       .  A
C3268     Br3269   1.919       .  S
C3273      C3274   1.402       .  A
C3273      C3278   1.402       .  A
C3273      H3280   1.084       .  S
C3274      C3275   1.402       .  A
C3275      C3276   1.395       .  A
C3275     Br3282   1.919       .  S
C3276      C3277   1.408       .  A
C3276      H3281   1.084       .  S
C3277      C3278   1.412       .  A
C3278     Br3279   1.917   1_565  S
C3283      C3284   1.396       .  A
C3283      C3288   1.393       .  A
C3283      H3290   1.085       .  S
C3284      C3285   1.406       .  A
C3285      C3286   1.406       .  A
C3285     Br3292   1.912       .  S
C3286      C3287   1.407       .  A
C3286      H3291   1.084       .  S
C3287      C3288   1.412       .  A
C3288     Br3289   1.906       .  S
C3293      C3294   1.400       .  A
C3293      C3298   1.405       .  A
C3293      H3300   1.084       .  S
C3294      C3295   1.410       .  A
C3295      C3296   1.399       .  A
C3295     Br3302   1.911       .  S
C3296      C3297   1.404       .  A
C3296      H3301   1.084       .  S
C3297      C3298   1.423       .  A
C3298     Br3299   1.923       .  S
C3303      C3304   1.392       .  A
C3303      C3308   1.387       .  A
C3303      H3310   1.085       .  S
C3304      C3305   1.404       .  A
C3305      C3306   1.398       .  A
C3305     Br3312   1.910       .  S
C3306      C3307   1.403       .  A
C3306      H3311   1.078       .  S
C3307      C3308   1.422       .  A
C3308     Br3309   1.929       .  S
C3313      C3314   1.409       .  A
C3313      C3318   1.408       .  A
C3313      H3320   1.084       .  S
C3314      C3315   1.406       .  A
C3315      C3316   1.398       .  A
C3315     Br3322   1.914       .  S
C3316      C3317   1.405       .  A
C3316      H3321   1.085       .  S
C3317      C3318   1.406       .  A
C3318     Br3319   1.914   1_545  S
C3323      C3324   1.405   1_565  A
C3323      C3328   1.403       .  A
C3323      H3330   1.083       .  S
C3324      C3325   1.413   1_545  A
C3325      C3326   1.381       .  A
C3325     Br3332   1.917   1_565  S
C3326      C3327   1.391       .  A
C3326      H3331   1.085       .  S
C3327      C3328   1.405       .  A
C3328     Br3329   1.909       .  S
C3333      C3334   1.416       .  A
C3333      C3338   1.413       .  A
C3333      H3340   1.083       .  S
C3334      C3335   1.421       .  A
C3335      C3336   1.392       .  A
C3335     Br3342   1.920       .  S
C3336      C3337   1.398       .  A
C3336      H3341   1.085       .  S
C3337      C3338   1.407       .  A
C3338     Br3339   1.914       .  S
C3343      C3344   1.407       .  A
C3343      C3348   1.398       .  A
C3343      H3350   1.084       .  S
C3344      C3345   1.414       .  A
C3345      C3346   1.407       .  A
C3345     Br3352   1.908       .  S
C3346      C3347   1.403       .  A
C3346      H3351   1.084       .  S
C3347      C3348   1.407       .  A
C3348     Br3349   1.917       .  S
C3353      C3354   1.404   1_655  A
C3353      C3358   1.411       .  A
C3353      H3360   1.081       .  S
C3354      C3355   1.412       .  A
C3355      C3356   1.407       .  A
C3355     Br3362   1.920       .  S
C3356      C3357   1.404       .  A
C3356      H3361   1.083       .  S
C3357      C3358   1.414   1_455  A
C3358     Br3359   1.917       .  S
C3363      C3364   1.405       .  A
C3363      C3368   1.403       .  A
C3363      H3370   1.084       .  S
C3364      C3365   1.412       .  A
C3365      C3366   1.382       .  A
C3365     Br3372   1.922       .  S
C3366      C3367   1.399       .  A
C3366      H3371   1.079       .  S
C3367      C3368   1.413       .  A
C3368     Br3369   1.920       .  S
C3373      C3374   1.391   1_554  A
C3373      C3378   1.384   1_554  A
C3373      H3380   1.083       .  S
C3374      C3375   1.416       .  A
C3375      C3376   1.432       .  A
C3375     Br3382   1.912       .  S
C3376      C3377   1.419       .  A
C3376      H3381   1.083       .  S
C3377      C3378   1.430       .  A
C3378     Br3379   1.929       .  S
C3383      C3384   1.405       .  A
C3383      C3388   1.415       .  A
C3383      H3390   1.083       .  S
C3384      C3385   1.412       .  A
C3385      C3386   1.391       .  A
C3385     Br3392   1.907       .  S
C3386      C3387   1.399       .  A
C3386      H3391   1.084       .  S
C3387      C3388   1.421       .  A
C3388     Br3389   1.920       .  S
C3393      C3394   1.399       .  A
C3393      C3398   1.395       .  A
C3393      H3400   1.085       .  S
C3394      C3395   1.404       .  A
C3395      C3396   1.398       .  A
C3395     Br3402   1.919       .  S
C3396      C3397   1.407       .  A
C3396      H3401   1.084       .  S
C3397      C3398   1.414       .  A
C3398     Br3399   1.921       .  S
C3403      C3404   1.407       .  A
C3403      C3408   1.404       .  A
C3403      H3410   1.083       .  S
C3404      C3405   1.415       .  A
C3405      C3406   1.393       .  A
C3405     Br3412   1.923       .  S
C3406      C3407   1.400       .  A
C3406      H3411   1.085       .  S
C3407      C3408   1.405       .  A
C3408     Br3409   1.911       .  S
C3413      C3414   1.391       .  A
C3413      C3418   1.384       .  A
C3413      H3420   1.087       .  S
C3414      C3415   1.411       .  A
C3415      C3416   1.412       .  A
C3415     Br3422   1.914       .  S
C3416      C3417   1.407       .  A
C3416      H3421   1.083       .  S
C3417      C3418   1.420       .  A
C3418     Br3419   1.923       .  S
C3423      C3424   1.401       .  A
C3423      C3428   1.406       .  A
C3423      H3430   1.084       .  S
C3424      C3425   1.414       .  A
C3425      C3426   1.408       .  A
C3425     Br3432   1.920       .  S
C3426      C3427   1.404       .  A
C3426      H3431   1.084       .  S
C3427      C3428   1.414       .  A
C3428     Br3429   1.916       .  S
C3433      C3434   1.406       .  A
C3433      C3438   1.408       .  A
C3433      H3440   1.083       .  S
C3434      C3435   1.406       .  A
C3435      C3436   1.403       .  A
C3435     Br3442   1.919       .  S
C3436      C3437   1.408       .  A
C3436      H3441   1.084       .  S
C3437      C3438   1.411       .  A
C3438     Br3439   1.918   1_554  S
C3443      C3444   1.402       .  A
C3443      C3448   1.405       .  A
C3443      H3450   1.084       .  S
C3444      C3445   1.410       .  A
C3445      C3446   1.392       .  A
C3445     Br3452   1.906   1_554  S
C3446      C3447   1.395       .  A
C3446      H3451   1.084       .  S
C3447      C3448   1.409       .  A
C3448     Br3449   1.908       .  S
C3453      C3454   1.412       .  A
C3453      C3458   1.400       .  A
C3453      H3460   1.083       .  S
C3454      C3455   1.416       .  A
C3455      C3456   1.394       .  A
C3455     Br3462   1.925       .  S
C3456      C3457   1.402       .  A
C3456      H3461   1.084       .  S
C3457      C3458   1.403       .  A
C3458     Br3459   1.917       .  S
C3463      C3464   1.408       .  A
C3463      C3468   1.395       .  A
C3463      H3470   1.082       .  S
C3464      C3465   1.417       .  A
C3465      C3466   1.413       .  A
C3465     Br3472   1.916       .  S
C3466      C3467   1.406       .  A
C3466      H3471   1.083       .  S
C3467      C3468   1.406       .  A
C3468     Br3469   1.921       .  S
C3473      C3474   1.402       .  A
C3473      C3478   1.404       .  A
C3473      H3480   1.084       .  S
C3474      C3475   1.408       .  A
C3475      C3476   1.399       .  A
C3475     Br3482   1.907       .  S
C3476      C3477   1.399       .  A
C3476      H3481   1.084       .  S
C3477      C3478   1.412       .  A
C3478     Br3479   1.919       .  S
C3483      C3484   1.402       .  A
C3483      C3488   1.405       .  A
C3483      H3490   1.084       .  S
C3484      C3485   1.402       .  A
C3485      C3486   1.392       .  A
C3485     Br3492   1.916       .  S
C3486      C3487   1.404       .  A
C3486      H3491   1.078       .  S
C3487      C3488   1.416       .  A
C3488     Br3489   1.917       .  S
C3493      C3494   1.402       .  A
C3493      C3498   1.400       .  A
C3493      H3500   1.084       .  S
C3494      C3495   1.410       .  A
C3495      C3496   1.405       .  A
C3495     Br3502   1.917       .  S
C3496      C3497   1.403       .  A
C3496      H3501   1.084       .  S
C3497      C3498   1.408       .  A
C3498     Br3499   1.915       .  S
C3503      C3504   1.388       .  A
C3503      C3508   1.387       .  A
C3503      H3510   1.086       .  S
C3504      C3505   1.408       .  A
C3505      C3506   1.409       .  A
C3505     Br3512   1.914       .  S
C3506      C3507   1.407       .  A
C3506      H3511   1.083       .  S
C3507      C3508   1.424       .  A
C3508     Br3509   1.917       .  S
C3513      C3514   1.401       .  A
C3513      C3518   1.383       .  A
C3513      H3520   1.084       .  S
C3514      C3515   1.417       .  A
C3515      C3516   1.403       .  A
C3515     Br3522   1.921       .  S
C3516      C3517   1.403       .  A
C3516      H3521   1.084       .  S
C3517      C3518   1.414       .  A
C3518     Br3519   1.923       .  S
C3523      C3524   1.407       .  A
C3523      C3528   1.402       .  A
C3523      H3530   1.084       .  S
C3524      C3525   1.415       .  A
C3525      C3526   1.395       .  A
C3525     Br3532   1.920       .  S
C3526      C3527   1.399       .  A
C3526      H3531   1.085       .  S
C3527      C3528   1.405       .  A
C3528     Br3529   1.912       .  S
C3533      C3534   1.401       .  A
C3533      C3538   1.398       .  A
C3533      H3540   1.084       .  S
C3534      C3535   1.414       .  A
C3535      C3536   1.399       .  A
C3535     Br3542   1.920       .  S
C3536      C3537   1.400       .  A
C3536      H3541   1.084       .  S
C3537      C3538   1.408       .  A
C3538     Br3539   1.917       .  S
C3543      C3544   1.407       .  A
C3543      C3548   1.409       .  A
C3543      H3550   1.083       .  S
C3544      C3545   1.416       .  A
C3545      C3546   1.398       .  A
C3545     Br3552   1.913       .  S
C3546      C3547   1.397       .  A
C3546      H3551   1.084       .  S
C3547      C3548   1.409       .  A
C3548     Br3549   1.914       .  S
C3553      C3554   1.399       .  A
C3553      C3558   1.392       .  A
C3553      H3560   1.085       .  S
C3554      C3555   1.409   1_455  A
C3555      C3556   1.405       .  A
C3555     Br3562   1.918       .  S
C3556      C3557   1.405   1_655  A
C3556      H3561   1.084       .  S
C3557      C3558   1.405       .  A
C3558     Br3559   1.908       .  S
C3563      C3564   1.399       .  A
C3563      C3568   1.397       .  A
C3563      H3570   1.084       .  S
C3564      C3565   1.407       .  A
C3565      C3566   1.386       .  A
C3565     Br3572   1.920       .  S
C3566      C3567   1.402       .  A
C3566      H3571   1.084       .  S
C3567      C3568   1.419       .  A
C3568     Br3569   1.923       .  S
C3573      C3574   1.406   1_556  A
C3573      C3578   1.398       .  A
C3573      H3580   1.084       .  S
C3574      C3575   1.415       .  A
C3575      C3576   1.389       .  A
C3575     Br3582   1.926       .  S
C3576      C3577   1.404       .  A
C3576      H3581   1.084       .  S
C3577      C3578   1.414   1_554  A
C3578     Br3579   1.923       .  S
C3583      C3584   1.402       .  A
C3583      C3588   1.399       .  A
C3583      H3590   1.084       .  S
C3584      C3585   1.406       .  A
C3585      C3586   1.402       .  A
C3585     Br3592   1.916       .  S
C3586      C3587   1.403       .  A
C3586      H3591   1.084       .  S
C3587      C3588   1.408       .  A
C3588     Br3589   1.918       .  S
C3593      C3594   1.407       .  A
C3593      C3598   1.406       .  A
C3593      H3600   1.083   1_556  S
C3594      C3595   1.414       .  A
C3595      C3596   1.375       .  A
C3595     Br3602   1.928       .  S
C3596      C3597   1.400       .  A
C3596      H3601   1.084       .  S
C3597      C3598   1.412       .  A
C3598     Br3599   1.918   1_556  S
C3603      C3604   1.401       .  A
C3603      C3608   1.404       .  A
C3603      H3610   1.084       .  S
C3604      C3605   1.411   1_455  A
C3605      C3606   1.408       .  A
C3605     Br3612   1.913       .  S
C3606      C3607   1.404   1_655  A
C3606      H3611   1.084       .  S
C3607      C3608   1.413       .  A
C3608     Br3609   1.913       .  S
C3613      C3614   1.409       .  A
C3613      C3618   1.413       .  A
C3613      H3620   1.083       .  S
C3614      C3615   1.426   1_556  A
C3615      C3616   1.389       .  A
C3615     Br3622   1.929       .  S
C3616      C3617   1.393       .  A
C3616      H3621   1.086       .  S
C3617      C3618   1.411   1_554  A
C3618     Br3619   1.914       .  S
C3623      C3624   1.407       .  A
C3623      C3628   1.397       .  A
C3623      H3630   1.084       .  S
C3624      C3625   1.409   1_455  A
C3625      C3626   1.406       .  A
C3625     Br3632   1.919       .  S
C3626      C3627   1.404   1_655  A
C3626      H3631   1.083       .  S
C3627      C3628   1.403       .  A
C3628     Br3629   1.917       .  S
C3633      C3634   1.406       .  A
C3633      C3638   1.411       .  A
C3633      H3640   1.083       .  S
C3634      C3635   1.413       .  A
C3635      C3636   1.394       .  A
C3635     Br3642   1.919       .  S
C3636      C3637   1.404       .  A
C3636      H3641   1.084       .  S
C3637      C3638   1.420       .  A
C3638     Br3639   1.919   1_655  S
C3643      C3644   1.394       .  A
C3643      C3648   1.382       .  A
C3643      H3650   1.059       .  S
C3644      C3645   1.408       .  A
C3645      C3646   1.417       .  A
C3645     Br3652   1.913       .  S
C3646      C3647   1.412       .  A
C3646      H3651   1.082       .  S
C3647      C3648   1.406       .  A
C3648     Br3649   1.922       .  S
C3653      C3654   1.405       .  A
C3653      C3658   1.406       .  A
C3653      H3660   1.084       .  S
C3654      C3655   1.412       .  A
C3655      C3656   1.387       .  A
C3655     Br3662   1.914       .  S
C3656      C3657   1.396       .  A
C3656      H3661   1.085       .  S
C3657      C3658   1.412       .  A
C3658     Br3659   1.918       .  S
C3663      C3664   1.395       .  A
C3663      C3668   1.393       .  A
C3663      H3670   1.085       .  S
C3664      C3665   1.408   1_655  A
C3665      C3666   1.405       .  A
C3665     Br3672   1.915       .  S
C3666      C3667   1.404   1_455  A
C3666      H3671   1.084       .  S
C3667      C3668   1.415       .  A
C3668     Br3669   1.912       .  S
C3673      C3674   1.401       .  A
C3673      C3678   1.401       .  A
C3673      H3680   1.084       .  S
C3674      C3675   1.409   1_455  A
C3675      C3676   1.399       .  A
C3675     Br3682   1.912       .  S
C3676      C3677   1.397       .  A
C3676      H3681   1.084       .  S
C3677      C3678   1.410   1_655  A
C3678     Br3679   1.918       .  S
C3683      C3684   1.400       .  A
C3683      C3688   1.397       .  A
C3683      H3690   1.084       .  S
C3684      C3685   1.408       .  A
C3685      C3686   1.404       .  A
C3685     Br3692   1.917       .  S
C3686      C3687   1.405       .  A
C3686      H3691   1.084       .  S
C3687      C3688   1.410       .  A
C3688     Br3689   1.916       .  S
C3693      C3694   1.389       .  A
C3693      C3698   1.386       .  A
C3693      H3700   1.086   1_455  S
C3694      C3695   1.409       .  A
C3695      C3696   1.414       .  A
C3695     Br3702   1.915       .  S
C3696      C3697   1.410       .  A
C3696      H3701   1.083       .  S
C3697      C3698   1.419       .  A
C3698     Br3699   1.915   1_455  S
C3703      C3704   1.399       .  A
C3703      C3708   1.399       .  A
C3703      H3710   1.084       .  S
C3704      C3705   1.409       .  A
C3705      C3706   1.404       .  A
C3705     Br3712   1.917   1_556  S
C3706      C3707   1.404       .  A
C3706      H3711   1.084   1_556  S
C3707      C3708   1.417       .  A
C3708     Br3709   1.921       .  S
C3713      C3714   1.399   1_554  A
C3713      C3718   1.390       .  A
C3713      H3720   1.072       .  S
C3714      C3715   1.419       .  A
C3715      C3716   1.406       .  A
C3715     Br3722   1.920       .  S
C3716      C3717   1.404       .  A
C3716      H3721   1.084       .  S
C3717      C3718   1.409   1_556  A
C3718     Br3719   1.917       .  S
C3723      C3724   1.402       .  A
C3723      C3728   1.403       .  A
C3723      H3730   1.083       .  S
C3724      C3725   1.412       .  A
C3725      C3726   1.393       .  A
C3725     Br3732   1.921       .  S
C3726      C3727   1.397       .  A
C3726      H3731   1.084       .  S
C3727      C3728   1.411       .  A
C3728     Br3729   1.919       .  S
C3733      C3734   1.401       .  A
C3733      C3738   1.403       .  A
C3733      H3740   1.080       .  S
C3734      C3735   1.409   1_455  A
C3735      C3736   1.407       .  A
C3735     Br3742   1.913       .  S
C3736      C3737   1.404   1_655  A
C3736      H3741   1.083       .  S
C3737      C3738   1.410       .  A
C3738     Br3739   1.915       .  S
C3743      C3744   1.399   1_655  A
C3743      C3748   1.386       .  A
C3743      H3750   1.085       .  S
C3744      C3745   1.407       .  A
C3745      C3746   1.408       .  A
C3745     Br3752   1.913       .  S
C3746      C3747   1.407   1_455  A
C3746      H3751   1.084       .  S
C3747      C3748   1.408       .  A
C3748     Br3749   1.920       .  S
C3753      C3754   1.401       .  A
C3753      C3758   1.396       .  A
C3753      H3760   1.084       .  S
C3754      C3755   1.404       .  A
C3755      C3756   1.401       .  A
C3755     Br3762   1.918       .  S
C3756      C3757   1.409       .  A
C3756      H3761   1.083       .  S
C3757      C3758   1.412       .  A
C3758     Br3759   1.922       .  S
C3763      C3764   1.407       .  A
C3763      C3768   1.409       .  A
C3763      H3770   1.083       .  S
C3764      C3765   1.412       .  A
C3765      C3766   1.387       .  A
C3765     Br3772   1.918       .  S
C3766      C3767   1.395       .  A
C3766      H3771   1.083       .  S
C3767      C3768   1.407       .  A
C3768     Br3769   1.913       .  S
C3773      C3774   1.400       .  A
C3773      C3778   1.399       .  A
C3773      H3780   1.084       .  S
C3774      C3775   1.410       .  A
C3775      C3776   1.402       .  A
C3775     Br3782   1.918       .  S
C3776      C3777   1.401       .  A
C3776      H3781   1.084       .  S
C3777      C3778   1.411       .  A
C3778     Br3779   1.916       .  S
C3783      C3784   1.408       .  A
C3783      C3788   1.407       .  A
C3783      H3790   1.084       .  S
C3784      C3785   1.406       .  A
C3785      C3786   1.395       .  A
C3785     Br3792   1.911       .  S
C3786      C3787   1.403       .  A
C3786      H3791   1.084       .  S
C3787      C3788   1.407       .  A
C3788     Br3789   1.916       .  S
C3793      C3794   1.413       .  A
C3793      C3798   1.406       .  A
C3793      H3800   1.083       .  S
C3794      C3795   1.417       .  A
C3795      C3796   1.391       .  A
C3795     Br3802   1.927       .  S
C3796      C3797   1.403       .  A
C3796      H3801   1.085       .  S
C3797      C3798   1.407       .  A
C3798     Br3799   1.918       .  S
C3803      C3804   1.409       .  A
C3803      C3808   1.409       .  A
C3803      H3810   1.083       .  S
C3804      C3805   1.418       .  A
C3805      C3806   1.375       .  A
C3805     Br3812   1.924       .  S
C3806      C3807   1.387       .  A
C3806      H3811   1.084       .  S
C3807      C3808   1.406       .  A
C3808     Br3809   1.915       .  S
C3813      C3814   1.409       .  A
C3813      C3818   1.414       .  A
C3813      H3820   1.083       .  S
C3814      C3815   1.414   1_655  A
C3815      C3816   1.390   1_455  A
C3815     Br3822   1.915   1_554  S
C3816      C3817   1.396       .  A
C3816      H3821   1.084   1_655  S
C3817      C3818   1.410       .  A
C3818     Br3819   1.914       .  S
C3823      C3824   1.411   1_455  A
C3823      C3828   1.415       .  A
C3823      H3830   1.083       .  S
C3824      C3825   1.412       .  A
C3825      C3826   1.403       .  A
C3825     Br3832   1.919       .  S
C3826      C3827   1.404   1_655  A
C3826      H3831   1.083       .  S
C3827      C3828   1.409       .  A
C3828     Br3829   1.915       .  S
C3833      C3834   1.405       .  A
C3833      C3838   1.393       .  A
C3833      H3840   1.084       .  S
C3834      C3835   1.405   1_455  A
C3835      C3836   1.398       .  A
C3835     Br3842   1.912       .  S
C3836      C3837   1.401   1_655  A
C3836      H3841   1.084       .  S
C3837      C3838   1.403       .  A
C3838     Br3839   1.920       .  S
C3843      C3844   1.406       .  A
C3843      C3848   1.410       .  A
C3843      H3850   1.083   1_554  S
C3844      C3845   1.408       .  A
C3845      C3846   1.398       .  A
C3845     Br3852   1.891       .  S
C3846      C3847   1.397       .  A
C3846      H3851   1.084       .  S
C3847      C3848   1.412       .  A
C3848     Br3849   1.915       .  S
C3853      C3854   1.403       .  A
C3853      C3858   1.393       .  A
C3853      H3860   1.084       .  S
C3854      C3855   1.409       .  A
C3855      C3856   1.407       .  A
C3855     Br3862   1.918       .  S
C3856      C3857   1.408       .  A
C3856      H3861   1.084       .  S
C3857      C3858   1.411       .  A
C3858     Br3859   1.921       .  S
C3863      C3864   1.404       .  A
C3863      C3868   1.406       .  A
C3863      H3870   1.084       .  S
C3864      C3865   1.414   1_556  A
C3865      C3866   1.388       .  A
C3865     Br3872   1.912       .  S
C3866      C3867   1.391   1_554  A
C3866      H3871   1.082       .  S
C3867      C3868   1.409       .  A
C3868     Br3869   1.913       .  S
C3873      C3874   1.407       .  A
C3873      C3878   1.403       .  A
C3873      H3880   1.083       .  S
C3874      C3875   1.419       .  A
C3875      C3876   1.390       .  A
C3875     Br3882   1.927       .  S
C3876      C3877   1.404       .  A
C3876      H3881   1.084       .  S
C3877      C3878   1.414       .  A
C3878     Br3879   1.921       .  S
C3883      C3884   1.406       .  A
C3883      C3888   1.390       .  A
C3883      H3890   1.084       .  S
C3884      C3885   1.410       .  A
C3885      C3886   1.400       .  A
C3885     Br3892   1.920       .  S
C3886      C3887   1.402       .  A
C3886      H3891   1.084       .  S
C3887      C3888   1.400       .  A
C3888     Br3889   1.917       .  S
C3893      C3894   1.400       .  A
C3893      C3898   1.392       .  A
C3893      H3900   1.085       .  S
C3894      C3895   1.403       .  A
C3895      C3896   1.396       .  A
C3895     Br3902   1.917       .  S
C3896      C3897   1.404       .  A
C3896      H3901   1.084       .  S
C3897      C3898   1.408       .  A
C3898     Br3899   1.922       .  S
C3903      C3904   1.406       .  A
C3903      C3908   1.409       .  A
C3903      H3910   1.082       .  S
C3904      C3905   1.417       .  A
C3905      C3906   1.384       .  A
C3905     Br3912   1.928       .  S
C3906      C3907   1.401       .  A
C3906      H3911   1.085       .  S
C3907      C3908   1.413       .  A
C3908     Br3909   1.906       .  S
C3913      C3914   1.403       .  A
C3913      C3918   1.394       .  A
C3913      H3920   1.084       .  S
C3914      C3915   1.405       .  A
C3915      C3916   1.401       .  A
C3915     Br3922   1.919       .  S
C3916      C3917   1.407       .  A
C3916      H3921   1.084       .  S
C3917      C3918   1.403       .  A
C3918     Br3919   1.913       .  S
C3923      C3924   1.397       .  A
C3923      C3928   1.378       .  A
C3923      H3930   1.086       .  S
C3924      C3925   1.416       .  A
C3925      C3926   1.416       .  A
C3925     Br3932   1.914       .  S
C3926      C3927   1.409       .  A
C3926      H3931   1.083       .  S
C3927      C3928   1.406       .  A
C3928     Br3929   1.934       .  S
C3933      C3934   1.410       .  A
C3933      C3938   1.402       .  A
C3933      H3940   1.084       .  S
C3934      C3935   1.412       .  A
C3935      C3936   1.403       .  A
C3935     Br3942   1.920       .  S
C3936      C3937   1.404       .  A
C3936      H3941   1.084       .  S
C3937      C3938   1.405       .  A
C3938     Br3939   1.919       .  S
C3943      C3944   1.404       .  A
C3943      C3948   1.406       .  A
C3943      H3950   1.083       .  S
C3944      C3945   1.410       .  A
C3945      C3946   1.403       .  A
C3945     Br3952   1.920       .  S
C3946      C3947   1.403       .  A
C3946      H3951   1.084       .  S
C3947      C3948   1.411       .  A
C3948     Br3949   1.918       .  S
C3953      C3954   1.399       .  A
C3953      C3958   1.392       .  A
C3953      H3960   1.085       .  S
C3954      C3955   1.404       .  A
C3955      C3956   1.402       .  A
C3955     Br3962   1.918       .  S
C3956      C3957   1.411       .  A
C3956      H3961   1.083       .  S
C3957      C3958   1.418       .  A
C3958     Br3959   1.922       .  S
C3963      C3964   1.407       .  A
C3963      C3968   1.404       .  A
C3963      H3970   1.084       .  S
C3964      C3965   1.400       .  A
C3965      C3966   1.376       .  A
C3965     Br3972   1.920       .  S
C3966      C3967   1.405       .  A
C3966      H3971   1.085       .  S
C3967      C3968   1.406       .  A
C3968     Br3969   1.915       .  S
C3973      C3974   1.407       .  A
C3973      C3978   1.404       .  A
C3973      H3980   1.084       .  S
C3974      C3975   1.410       .  A
C3975      C3976   1.411       .  A
C3975     Br3982   1.918       .  S
C3976      C3977   1.408       .  A
C3976      H3981   1.084       .  S
C3977      C3978   1.407       .  A
C3978     Br3979   1.918       .  S
C3983      C3984   1.408       .  A
C3983      C3988   1.411       .  A
C3983      H3990   1.083       .  S
C3984      C3985   1.418       .  A
C3985      C3986   1.384       .  A
C3985     Br3992   1.920       .  S
C3986      C3987   1.390       .  A
C3986      H3991   1.085       .  S
C3987      C3988   1.408       .  A
C3988     Br3989   1.914       .  S
C3993      C3994   1.416       .  A
C3993      C3998   1.425       .  A
C3993      H4000   1.083       .  S
C3994      C3995   1.423       .  A
C3995      C3996   1.380       .  A
C3995     Br4002   1.936       .  S
C3996      C3997   1.391       .  A
C3996      H4001   1.074       .  S
C3997      C3998   1.412       .  A
C3998     Br3999   1.912       .  S
C4003      C4004   1.406       .  A
C4003      C4008   1.401       .  A
C4003      H4010   1.084       .  S
C4004      C4005   1.406       .  A
C4005      C4006   1.403       .  A
C4005     Br4012   1.918       .  S
C4006      C4007   1.408       .  A
C4006      H4011   1.084       .  S
C4007      C4008   1.407       .  A
C4008     Br4009   1.919       .  S
C4013      C4014   1.403       .  A
C4013      C4018   1.384       .  A
C4013      H4020   1.084       .  S
C4014      C4015   1.409       .  A
C4015      C4016   1.409       .  A
C4015     Br4022   1.917       .  S
C4016      C4017   1.410       .  A
C4016      H4021   1.083       .  S
C4017      C4018   1.410       .  A
C4018     Br4019   1.925       .  S
C4023      C4024   1.404       .  A
C4023      C4028   1.405       .  A
C4023      H4030   1.084       .  S
C4024      C4025   1.405       .  A
C4025      C4026   1.380       .  A
C4025     Br4032   1.913       .  S
C4026      C4027   1.401       .  A
C4026      H4031   1.082       .  S
C4027      C4028   1.417       .  A
C4028     Br4029   1.920       .  S
C4033      C4034   1.398       .  A
C4033      C4038   1.386       .  A
C4033      H4040   1.083       .  S
C4034      C4035   1.404       .  A
C4035      C4036   1.404       .  A
C4035     Br4042   1.915       .  S
C4036      C4037   1.406       .  A
C4036      H4041   1.083       .  S
C4037      C4038   1.406       .  A
C4038     Br4039   1.918       .  S
C4043      C4044   1.401       .  A
C4043      C4048   1.399       .  A
C4043      H4050   1.084       .  S
C4044      C4045   1.409       .  A
C4045      C4046   1.407       .  A
C4045     Br4052   1.917       .  S
C4046      C4047   1.407       .  A
C4046      H4051   1.083   1_655  S
C4047      C4048   1.415       .  A
C4048     Br4049   1.921       .  S
C4053      C4054   1.402       .  A
C4053      C4058   1.387       .  A
C4053      H4060   1.085       .  S
C4054      C4055   1.408       .  A
C4055      C4056   1.409       .  A
C4055     Br4062   1.915       .  S
C4056      C4057   1.407       .  A
C4056      H4061   1.083       .  S
C4057      C4058   1.404       .  A
C4058     Br4059   1.914       .  S
C4063      C4064   1.407       .  A
C4063      C4068   1.399       .  A
C4063      H4070   1.084       .  S
C4064      C4065   1.414       .  A
C4065      C4066   1.395       .  A
C4065     Br4072   1.925       .  S
C4066      C4067   1.399       .  A
C4066      H4071   1.083       .  S
C4067      C4068   1.404       .  A
C4068     Br4069   1.918       .  S
C4073      C4074   1.402       .  A
C4073      C4078   1.401       .  A
C4073      H4080   1.084       .  S
C4074      C4075   1.405       .  A
C4075      C4076   1.388       .  A
C4075     Br4082   1.914       .  S
C4076      C4077   1.403       .  A
C4076      H4081   1.083       .  S
C4077      C4078   1.414       .  A
C4078     Br4079   1.920       .  S
C4083      C4084   1.400       .  A
C4083      C4088   1.396       .  A
C4083      H4090   1.081       .  S
C4084      C4085   1.404       .  A
C4085      C4086   1.394       .  A
C4085     Br4092   1.915       .  S
C4086      C4087   1.405       .  A
C4086      H4091   1.084       .  S
C4087      C4088   1.407       .  A
C4088     Br4089   1.916       .  S
C4093      C4094   1.401       .  A
C4093      C4098   1.390       .  A
C4093      H4100   1.085       .  S
C4094      C4095   1.403       .  A
C4095      C4096   1.400       .  A
C4095     Br4102   1.918       .  S
C4096      C4097   1.412       .  A
C4096      H4101   1.083       .  S
C4097      C4098   1.416       .  A
C4098     Br4099   1.925       .  S
C4103      C4104   1.403       .  A
C4103      C4108   1.408       .  A
C4103      H4110   1.084       .  S
C4104      C4105   1.405       .  A
C4105      C4106   1.396       .  A
C4105     Br4112   1.918       .  S
C4106      C4107   1.407       .  A
C4106      H4111   1.084       .  S
C4107      C4108   1.417       .  A
C4108     Br4109   1.921       .  S
C4113      C4114   1.403       .  A
C4113      C4118   1.405       .  A
C4113      H4120   1.084       .  S
C4114      C4115   1.411       .  A
C4115      C4116   1.394       .  A
C4115     Br4122   1.912       .  S
C4116      C4117   1.398       .  A
C4116      H4121   1.084       .  S
C4117      C4118   1.410       .  A
C4118     Br4119   1.917       .  S
C4123      C4124   1.412       .  A
C4123      C4128   1.415       .  A
C4123      H4130   1.083       .  S
C4124      C4125   1.426       .  A
C4125      C4126   1.389       .  A
C4125     Br4132   1.925       .  S
C4126      C4127   1.392       .  A
C4126      H4131   1.083       .  S
C4127      C4128   1.410       .  A
C4128     Br4129   1.914       .  S
C4133      C4134   1.409       .  A
C4133      C4138   1.414       .  A
C4133      H4140   1.083       .  S
C4134      C4135   1.408       .  A
C4135      C4136   1.408       .  A
C4135     Br4142   1.916       .  S
C4136      C4137   1.408       .  A
C4136      H4141   1.083       .  S
C4137      C4138   1.411       .  A
C4138     Br4139   1.917       .  S
C4143      C4144   1.409       .  A
C4143      C4148   1.415       .  A
C4143      H4150   1.083       .  S
C4144      C4145   1.411       .  A
C4145      C4146   1.381       .  A
C4145     Br4152   1.916       .  S
C4146      C4147   1.397       .  A
C4146      H4151   1.085       .  S
C4147      C4148   1.413       .  A
C4148     Br4149   1.916       .  S
C4153      C4154   1.408       .  A
C4153      C4158   1.386       .  A
C4153      H4160   1.083       .  S
C4154      C4155   1.416       .  A
C4155      C4156   1.415       .  A
C4155     Br4162   1.915       .  S
C4156      C4157   1.408       .  A
C4156      H4161   1.083       .  S
C4157      C4158   1.405       .  A
C4158     Br4159   1.922       .  S
C4163      C4164   1.405       .  A
C4163      C4168   1.405       .  A
C4163      H4170   1.083       .  S
C4164      C4165   1.408       .  A
C4165      C4166   1.401       .  A
C4165     Br4172   1.916       .  S
C4166      C4167   1.402       .  A
C4166      H4171   1.084       .  S
C4167      C4168   1.406       .  A
C4168     Br4169   1.915       .  S
C4173      C4174   1.407       .  A
C4173      C4178   1.398       .  A
C4173      H4180   1.083       .  S
C4174      C4175   1.408       .  A
C4175      C4176   1.398       .  A
C4175     Br4182   1.920       .  S
C4176      C4177   1.399       .  A
C4176      H4181   1.083       .  S
C4177      C4178   1.401       .  A
C4178     Br4179   1.916       .  S
C4183      C4184   1.404       .  A
C4183      C4188   1.405       .  A
C4183      H4190   1.083       .  S
C4184      C4185   1.406       .  A
C4185      C4186   1.395       .  A
C4185     Br4192   1.909       .  S
C4186      C4187   1.401       .  A
C4186      H4191   1.084       .  S
C4187      C4188   1.409       .  A
C4188     Br4189   1.917       .  S
C4193      C4194   1.408       .  A
C4193      C4198   1.410       .  A
C4193      H4200   1.081       .  S
C4194      C4195   1.413       .  A
C4195      C4196   1.398       .  A
C4195     Br4202   1.923       .  S
C4196      C4197   1.403       .  A
C4196      H4201   1.084       .  S
C4197      C4198   1.408       .  A
C4198     Br4199   1.916       .  S
C4203      C4204   1.394       .  A
C4203      C4208   1.390       .  A
C4203      H4210   1.085       .  S
C4204      C4205   1.409       .  A
C4205      C4206   1.409       .  A
C4205     Br4212   1.917       .  S
C4206      C4207   1.406       .  A
C4206      H4211   1.083       .  S
C4207      C4208   1.412       .  A
C4208     Br4209   1.909       .  S
C4213      C4214   1.402       .  A
C4213      C4218   1.402       .  A
C4213      H4220   1.084       .  S
C4214      C4215   1.406       .  A
C4215      C4216   1.397       .  A
C4215     Br4222   1.917       .  S
C4216      C4217   1.403       .  A
C4216      H4221   1.084       .  S
C4217      C4218   1.407       .  A
C4218     Br4219   1.918       .  S
C4223      C4224   1.391       .  A
C4223      C4228   1.388       .  A
C4223      H4230   1.085       .  S
C4224      C4225   1.411       .  A
C4225      C4226   1.415       .  A
C4225     Br4232   1.912       .  S
C4226      C4227   1.411       .  A
C4226      H4231   1.083       .  S
C4227      C4228   1.425       .  A
C4228     Br4229   1.920       .  S
C4233      C4234   1.405       .  A
C4233      C4238   1.404       .  A
C4233      H4240   1.084       .  S
C4234      C4235   1.412       .  A
C4235      C4236   1.391       .  A
C4235     Br4242   1.913       .  S
C4236      C4237   1.396       .  A
C4236      H4241   1.084       .  S
C4237      C4238   1.407       .  A
C4238     Br4239   1.916       .  S
C4243      C4244   1.398       .  A
C4243      C4248   1.389       .  A
C4243      H4250   1.085       .  S
C4244      C4245   1.406       .  A
C4245      C4246   1.402       .  A
C4245     Br4252   1.918       .  S
C4246      C4247   1.411       .  A
C4246      H4251   1.083       .  S
C4247      C4248   1.417       .  A
C4248     Br4249   1.923       .  S
C4253      C4254   1.404       .  A
C4253      C4258   1.396       .  A
C4253      H4260   1.084       .  S
C4254      C4255   1.413       .  A
C4255      C4256   1.409       .  A
C4255     Br4262   1.914       .  S
C4256      C4257   1.407       .  A
C4256      H4261   1.083       .  S
C4257      C4258   1.415       .  A
C4258     Br4259   1.924       .  S
C4263      C4264   1.397       .  A
C4263      C4268   1.388       .  A
C4263      H4270   1.080       .  S
C4264      C4265   1.404       .  A
C4265      C4266   1.397       .  A
C4265     Br4272   1.913       .  S
C4266      C4267   1.401       .  A
C4266      H4271   1.084       .  S
C4267      C4268   1.403       .  A
C4268     Br4269   1.912       .  S
C4273      C4274   1.413       .  A
C4273      C4278   1.411       .  A
C4273      H4280   1.083       .  S
C4274      C4275   1.412       .  A
C4275      C4276   1.373       .  A
C4275     Br4282   1.932       .  S
C4276      C4277   1.399       .  A
C4276      H4281   1.084       .  S
C4277      C4278   1.405       .  A
C4278     Br4279   1.913       .  S
C4283      C4284   1.403       .  A
C4283      C4288   1.378       .  A
C4283      H4290   1.084       .  S
C4284      C4285   1.413       .  A
C4285      C4286   1.407       .  A
C4285     Br4292   1.918       .  S
C4286      C4287   1.408       .  A
C4286      H4291   1.083       .  S
C4287      C4288   1.413       .  A
C4288     Br4289   1.926       .  S
C4293      C4294   1.399       .  A
C4293      C4298   1.392       .  A
C4293      H4300   1.085       .  S
C4294      C4295   1.405       .  A
C4295      C4296   1.403       .  A
C4295     Br4302   1.917       .  S
C4296      C4297   1.407       .  A
C4296      H4301   1.083       .  S
C4297      C4298   1.413       .  A
C4298     Br4299   1.924       .  S
C4303      C4304   1.395       .  A
C4303      C4308   1.397       .  A
C4303      H4310   1.079       .  S
C4304      C4305   1.407       .  A
C4305      C4306   1.409       .  A
C4305     Br4312   1.917       .  S
C4306      C4307   1.408       .  A
C4306      H4311   1.084       .  S
C4307      C4308   1.408       .  A
C4308     Br4309   1.906       .  S
C4313      C4314   1.399       .  A
C4313      C4318   1.399       .  A
C4313      H4320   1.084       .  S
C4314      C4315   1.405       .  A
C4315      C4316   1.402       .  A
C4315     Br4322   1.913       .  S
C4316      C4317   1.408       .  A
C4316      H4321   1.083       .  S
C4317      C4318   1.414       .  A
C4318     Br4319   1.914       .  S
C4323      C4324   1.402       .  A
C4323      C4328   1.402       .  A
C4323      H4330   1.083       .  S
C4324      C4325   1.404       .  A
C4325      C4326   1.401       .  A
C4325     Br4332   1.919       .  S
C4326      C4327   1.410       .  A
C4326      H4331   1.084       .  S
C4327      C4328   1.413       .  A
C4328     Br4329   1.916       .  S
C4333      C4334   1.402       .  A
C4333      C4338   1.405       .  A
C4333      H4340   1.084       .  S
C4334      C4335   1.406       .  A
C4335      C4336   1.393       .  A
C4335     Br4342   1.917       .  S
C4336      C4337   1.405       .  A
C4336      H4341   1.084       .  S
C4337      C4338   1.415       .  A
C4338     Br4339   1.914       .  S
C4343      C4344   1.404       .  A
C4343      C4348   1.401       .  A
C4343      H4350   1.084       .  S
C4344      C4345   1.407       .  A
C4345      C4346   1.399       .  A
C4345     Br4352   1.919       .  S
C4346      C4347   1.403       .  A
C4346      H4351   1.084       .  S
C4347      C4348   1.405       .  A
C4348     Br4349   1.917       .  S
C4353      C4354   1.403       .  A
C4353      C4358   1.401       .  A
C4353      H4360   1.084       .  S
C4354      C4355   1.414       .  A
C4355      C4356   1.383       .  A
C4355     Br4362   1.922       .  S
C4356      C4357   1.399       .  A
C4356      H4361   1.084       .  S
C4357      C4358   1.413       .  A
C4358     Br4359   1.920       .  S
C4363      C4364   1.401       .  A
C4363      C4368   1.396       .  A
C4363      H4370   1.084       .  S
C4364      C4365   1.410       .  A
C4365      C4366   1.411       .  A
C4365     Br4372   1.915       .  S
C4366      C4367   1.407       .  A
C4366      H4371   1.083       .  S
C4367      C4368   1.409       .  A
C4368     Br4369   1.918       .  S
C4373      C4374   1.408       .  A
C4373      C4378   1.412       .  A
C4373      H4380   1.083       .  S
C4374      C4375   1.408       .  A
C4375      C4376   1.394       .  A
C4375     Br4382   1.908       .  S
C4376      C4377   1.402       .  A
C4376      H4381   1.084       .  S
C4377      C4378   1.411       .  A
C4378     Br4379   1.910       .  S
C4383      C4384   1.413       .  A
C4383      C4388   1.407       .  A
C4383      H4390   1.083       .  S
C4384      C4385   1.416       .  A
C4385      C4386   1.388       .  A
C4385     Br4392   1.928       .  S
C4386      C4387   1.399       .  A
C4386      H4391   1.080       .  S
C4387      C4388   1.405       .  A
C4388     Br4389   1.916       .  S
C4393      C4394   1.399       .  A
C4393      C4398   1.398       .  A
C4393      H4400   1.084       .  S
C4394      C4395   1.406       .  A
C4395      C4396   1.395       .  A
C4395     Br4402   1.918       .  S
C4396      C4397   1.400       .  A
C4396      H4401   1.079       .  S
C4397      C4398   1.408       .  A
C4398     Br4399   1.911       .  S
C4403      C4404   1.404       .  A
C4403      C4408   1.401       .  A
C4403      H4410   1.082       .  S
C4404      C4405   1.413       .  A
C4405      C4406   1.392       .  A
C4405     Br4412   1.924       .  S
C4406      C4407   1.399       .  A
C4406      H4411   1.085       .  S
C4407      C4408   1.405       .  A
C4408     Br4409   1.911       .  S
C4413      C4414   1.403       .  A
C4413      C4418   1.402       .  A
C4413      H4420   1.084       .  S
C4414      C4415   1.409       .  A
C4415      C4416   1.406       .  A
C4415     Br4422   1.914       .  S
C4416      C4417   1.405       .  A
C4416      H4421   1.084       .  S
C4417      C4418   1.413       .  A
C4418     Br4419   1.921       .  S
C4423      C4424   1.398       .  A
C4423      C4428   1.380       .  A
C4423      H4430   1.086       .  S
C4424      C4425   1.418   1_554  A
C4425      C4426   1.424       .  A
C4425     Br4432   1.913       .  S
C4426      C4427   1.413       .  A
C4426      H4431   1.083       .  S
C4427      C4428   1.411   1_556  A
C4428     Br4429   1.933   1_554  S
C4433      C4434   1.402       .  A
C4433      C4438   1.403       .  A
C4433      H4440   1.084       .  S
C4434      C4435   1.411   1_556  A
C4435      C4436   1.382       .  A
C4435     Br4442   1.922       .  S
C4436      C4437   1.402       .  A
C4436      H4441   1.084       .  S
C4437      C4438   1.417   1_554  A
C4438     Br4439   1.921       .  S
C4443      C4444   1.400       .  A
C4443      C4448   1.397       .  A
C4443      H4450   1.084       .  S
C4444      C4445   1.408       .  A
C4445      C4446   1.402       .  A
C4445     Br4452   1.919       .  S
C4446      C4447   1.405       .  A
C4446      H4451   1.084       .  S
C4447      C4448   1.413       .  A
C4448     Br4449   1.923       .  S
C4453      C4454   1.411       .  A
C4453      C4458   1.413       .  A
C4453      H4460   1.083       .  S
C4454      C4455   1.404       .  A
C4455      C4456   1.395       .  A
C4455     Br4462   1.908   1_545  S
C4456      C4457   1.403       .  A
C4456      H4461   1.078   1_545  S
C4457      C4458   1.411       .  A
C4458     Br4459   1.915       .  S
C4463      C4464   1.403       .  A
C4463      C4468   1.396       .  A
C4463      H4470   1.084       .  S
C4464      C4465   1.421       .  A
C4465      C4466   1.406       .  A
C4465     Br4472   1.920   1_545  S
C4466      C4467   1.401       .  A
C4466      H4471   1.084       .  S
C4467      C4468   1.409       .  A
C4468     Br4469   1.915       .  S
C4473      C4474   1.402       .  A
C4473      C4478   1.399       .  A
C4473      H4480   1.082       .  S
C4474      C4475   1.411       .  A
C4475      C4476   1.395       .  A
C4475     Br4482   1.922       .  S
C4476      C4477   1.398       .  A
C4476      H4481   1.084       .  S
C4477      C4478   1.406       .  A
C4478     Br4479   1.915       .  S
C4483      C4484   1.407       .  A
C4483      C4488   1.390       .  A
C4483      H4490   1.084       .  S
C4484      C4485   1.411       .  A
C4485      C4486   1.398       .  A
C4485     Br4492   1.914       .  S
C4486      C4487   1.400       .  A
C4486      H4491   1.084       .  S
C4487      C4488   1.401       .  A
C4488     Br4489   1.920       .  S
C4493      C4494   1.401       .  A
C4493      C4498   1.402       .  A
C4493      H4500   1.084       .  S
C4494      C4495   1.413   1_554  A
C4495      C4496   1.402       .  A
C4495     Br4502   1.919       .  S
C4496      C4497   1.400   1_556  A
C4496      H4501   1.084       .  S
C4497      C4498   1.412       .  A
C4498     Br4499   1.918       .  S
C4503      C4504   1.395       .  A
C4503      C4508   1.381       .  A
C4503      H4510   1.084       .  S
C4504      C4505   1.416       .  A
C4505      C4506   1.405       .  A
C4505     Br4512   1.920   1_556  S
C4506      C4507   1.403       .  A
C4506      H4511   1.083   1_556  S
C4507      C4508   1.418       .  A
C4508     Br4509   1.919       .  S
C4513      C4514   1.402       .  A
C4513      C4518   1.402       .  A
C4513      H4520   1.082       .  S
C4514      C4515   1.408       .  A
C4515      C4516   1.388       .  A
C4515     Br4522   1.915       .  S
C4516      C4517   1.396       .  A
C4516      H4521   1.085       .  S
C4517      C4518   1.406       .  A
C4518     Br4519   1.909       .  S
C4523      C4524   1.402       .  A
C4523      C4528   1.398       .  A
C4523      H4530   1.084       .  S
C4524      C4525   1.410       .  A
C4525      C4526   1.403       .  A
C4525     Br4532   1.919       .  S
C4526      C4527   1.403       .  A
C4526      H4531   1.084       .  S
C4527      C4528   1.407       .  A
C4528     Br4529   1.919       .  S
C4533      C4534   1.402       .  A
C4533      C4538   1.400       .  A
C4533      H4540   1.084       .  S
C4534      C4535   1.408       .  A
C4535      C4536   1.407       .  A
C4535     Br4542   1.911       .  S
C4536      C4537   1.405       .  A
C4536      H4541   1.083       .  S
C4537      C4538   1.409       .  A
C4538     Br4539   1.910       .  S
C4543      C4544   1.402       .  A
C4543      C4548   1.406       .  A
C4543      H4550   1.084       .  S
C4544      C4545   1.413       .  A
C4545      C4546   1.408       .  A
C4545     Br4552   1.921       .  S
C4546      C4547   1.402       .  A
C4546      H4551   1.083       .  S
C4547      C4548   1.414       .  A
C4548     Br4549   1.921       .  S
C4553      C4554   1.403       .  A
C4553      C4558   1.404       .  A
C4553      H4560   1.084       .  S
C4554      C4555   1.406       .  A
C4555      C4556   1.386       .  A
C4555     Br4562   1.917       .  S
C4556      C4557   1.399       .  A
C4556      H4561   1.072       .  S
C4557      C4558   1.417       .  A
C4558     Br4559   1.920       .  S
C4563      C4564   1.411       .  A
C4563      C4568   1.419       .  A
C4563      H4570   1.083       .  S
C4564      C4565   1.409       .  A
C4565      C4566   1.383       .  A
C4565     Br4572   1.918       .  S
C4566      C4567   1.404       .  A
C4566      H4571   1.084       .  S
C4567      C4568   1.415       .  A
C4568     Br4569   1.915       .  S
C4573      C4574   1.403       .  A
C4573      C4578   1.390       .  A
C4573      H4580   1.084       .  S
C4574      C4575   1.415       .  A
C4575      C4576   1.396       .  A
C4575     Br4582   1.921       .  S
C4576      C4577   1.397       .  A
C4576      H4581   1.084       .  S
C4577      C4578   1.403       .  A
C4578     Br4579   1.919       .  S
C4583      C4584   1.412       .  A
C4583      C4588   1.409       .  A
C4583      H4590   1.083       .  S
C4584      C4585   1.421       .  A
C4585      C4586   1.382       .  A
C4585     Br4592   1.934       .  S
C4586      C4587   1.395       .  A
C4586      H4591   1.083       .  S
C4587      C4588   1.404       .  A
C4588     Br4589   1.913       .  S
C4593      C4594   1.402       .  A
C4593      C4598   1.397       .  A
C4593      H4600   1.084       .  S
C4594      C4595   1.404       .  A
C4595      C4596   1.400       .  A
C4595     Br4602   1.914       .  S
C4596      C4597   1.405       .  A
C4596      H4601   1.084       .  S
C4597      C4598   1.405       .  A
C4598     Br4599   1.918       .  S
C4603      C4604   1.404       .  A
C4603      C4608   1.397       .  A
C4603      H4610   1.084       .  S
C4604      C4605   1.419       .  A
C4605      C4606   1.404       .  A
C4605     Br4612   1.920       .  S
C4606      C4607   1.401       .  A
C4606      H4611   1.084       .  S
C4607      C4608   1.404       .  A
C4608     Br4609   1.909       .  S
C4613      C4614   1.400       .  A
C4613      C4618   1.391       .  A
C4613      H4620   1.085       .  S
C4614      C4615   1.403       .  A
C4615      C4616   1.398       .  A
C4615     Br4622   1.913       .  S
C4616      C4617   1.406       .  A
C4616      H4621   1.083       .  S
C4617      C4618   1.413       .  A
C4618     Br4619   1.924       .  S
C4623      C4624   1.406   1_565  A
C4623      C4628   1.408       .  A
C4623      H4630   1.084       .  S
C4624      C4625   1.410       .  A
C4625      C4626   1.380       .  A
C4625     Br4632   1.903       .  S
C4626      C4627   1.395   1_545  A
C4626      H4631   1.085       .  S
C4627      C4628   1.413       .  A
C4628     Br4629   1.916       .  S
C4633      C4634   1.404       .  A
C4633      C4638   1.401       .  A
C4633      H4640   1.084       .  S
C4634      C4635   1.423       .  A
C4635      C4636   1.391       .  A
C4635     Br4642   1.924       .  S
C4636      C4637   1.390       .  A
C4636      H4641   1.083       .  S
C4637      C4638   1.404       .  A
C4638     Br4639   1.915       .  S
C4643      C4644   1.402       .  A
C4643      C4648   1.398       .  A
C4643      H4650   1.084       .  S
C4644      C4645   1.407       .  A
C4645      C4646   1.399       .  A
C4645     Br4652   1.916   1_545  S
C4646      C4647   1.402       .  A
C4646      H4651   1.084       .  S
C4647      C4648   1.406       .  A
C4648     Br4649   1.918       .  S
C4653      C4654   1.394       .  A
C4653      C4658   1.394       .  A
C4653      H4660   1.080       .  S
C4654      C4655   1.401       .  A
C4655      C4656   1.383       .  A
C4655     Br4662   1.915       .  S
C4656      C4657   1.403       .  A
C4656      H4661   1.084       .  S
C4657      C4658   1.409       .  A
C4658     Br4659   1.899   1_545  S
C4663      C4664   1.400       .  A
C4663      C4668   1.396       .  A
C4663      H4670   1.084       .  S
C4664      C4665   1.404       .  A
C4665      C4666   1.399       .  A
C4665     Br4672   1.917       .  S
C4666      C4667   1.405       .  A
C4666      H4671   1.084       .  S
C4667      C4668   1.410       .  A
C4668     Br4669   1.922       .  S
C4673      C4674   1.392       .  A
C4673      C4678   1.386       .  A
C4673      H4680   1.085       .  S
C4674      C4675   1.410       .  A
C4675      C4676   1.414       .  A
C4675     Br4682   1.907       .  S
C4676      C4677   1.408       .  A
C4676      H4681   1.083       .  S
C4677      C4678   1.415       .  A
C4678     Br4679   1.904       .  S
C4683      C4684   1.395       .  A
C4683      C4688   1.394       .  A
C4683      H4690   1.082       .  S
C4684      C4685   1.406       .  A
C4685      C4686   1.399       .  A
C4685     Br4692   1.909       .  S
C4686      C4687   1.399       .  A
C4686      H4691   1.084       .  S
C4687      C4688   1.411       .  A
C4688     Br4689   1.916       .  S
C4693      C4694   1.403       .  A
C4693      C4698   1.400       .  A
C4693      H4700   1.084       .  S
C4694      C4695   1.410       .  A
C4695      C4696   1.411       .  A
C4695     Br4702   1.917       .  S
C4696      C4697   1.406       .  A
C4696      H4701   1.080       .  S
C4697      C4698   1.407       .  A
C4698     Br4699   1.907       .  S
C4703      C4704   1.402       .  A
C4703      C4708   1.381       .  A
C4703      H4710   1.084       .  S
C4704      C4705   1.416       .  A
C4705      C4706   1.407       .  A
C4705     Br4712   1.919       .  S
C4706      C4707   1.405       .  A
C4706      H4711   1.083       .  S
C4707      C4708   1.412       .  A
C4708     Br4709   1.922       .  S
C4713      C4714   1.394       .  A
C4713      C4718   1.388       .  A
C4713      H4720   1.082       .  S
C4714      C4715   1.404       .  A
C4715      C4716   1.400       .  A
C4715     Br4722   1.912       .  S
C4716      C4717   1.404       .  A
C4716      H4721   1.084       .  S
C4717      C4718   1.412       .  A
C4718     Br4719   1.920       .  S
C4723      C4724   1.400       .  A
C4723      C4728   1.402       .  A
C4723      H4730   1.084       .  S
C4724      C4725   1.410       .  A
C4725      C4726   1.402       .  A
C4725     Br4732   1.918       .  S
C4726      C4727   1.402       .  A
C4726      H4731   1.082       .  S
C4727      C4728   1.409       .  A
C4728     Br4729   1.912       .  S
C4733      C4734   1.407       .  A
C4733      C4738   1.402       .  A
C4733      H4740   1.084       .  S
C4734      C4735   1.407       .  A
C4735      C4736   1.403       .  A
C4735     Br4742   1.918       .  S
C4736      C4737   1.407       .  A
C4736      H4741   1.084       .  S
C4737      C4738   1.408       .  A
C4738     Br4739   1.918       .  S
C4743      C4744   1.413       .  A
C4743      C4748   1.403       .  A
C4743      H4750   1.083       .  S
C4744      C4745   1.418       .  A
C4745      C4746   1.394       .  A
C4745     Br4752   1.923       .  S
C4746      C4747   1.402       .  A
C4746      H4751   1.085       .  S
C4747      C4748   1.405       .  A
C4748     Br4749   1.918       .  S
C4753      C4754   1.401       .  A
C4753      C4758   1.398       .  A
C4753      H4760   1.084       .  S
C4754      C4755   1.402       .  A
C4755      C4756   1.396       .  A
C4755     Br4762   1.921       .  S
C4756      C4757   1.408       .  A
C4756      H4761   1.084       .  S
C4757      C4758   1.411       .  A
C4758     Br4759   1.921       .  S
C4763      C4764   1.409       .  A
C4763      C4768   1.404       .  A
C4763      H4770   1.083       .  S
C4764      C4765   1.416       .  A
C4765      C4766   1.392       .  A
C4765     Br4772   1.923       .  S
C4766      C4767   1.397       .  A
C4766      H4771   1.085       .  S
C4767      C4768   1.406       .  A
C4768     Br4769   1.918       .  S
C4773      C4774   1.395       .  A
C4773      C4778   1.372       .  A
C4773      H4780   1.085       .  S
C4774      C4775   1.410       .  A
C4775      C4776   1.418       .  A
C4775     Br4782   1.913       .  S
C4776      C4777   1.413       .  A
C4776      H4781   1.083       .  S
C4777      C4778   1.416       .  A
C4778     Br4779   1.930       .  S
C4783      C4784   1.401       .  A
C4783      C4788   1.400       .  A
C4783      H4790   1.083       .  S
C4784      C4785   1.403       .  A
C4785      C4786   1.395       .  A
C4785     Br4792   1.920       .  S
C4786      C4787   1.401       .  A
C4786      H4791   1.081       .  S
C4787      C4788   1.406       .  A
C4788     Br4789   1.917       .  S
C4793      C4794   1.402       .  A
C4793      C4798   1.394       .  A
C4793      H4800   1.084       .  S
C4794      C4795   1.400       .  A
C4795      C4796   1.400       .  A
C4795     Br4802   1.918       .  S
C4796      C4797   1.415       .  A
C4796      H4801   1.083       .  S
C4797      C4798   1.414       .  A
C4798     Br4799   1.920       .  S
C4803      C4804   1.411       .  A
C4803      C4808   1.405       .  A
C4803      H4810   1.083       .  S
C4804      C4805   1.417       .  A
C4805      C4806   1.398       .  A
C4805     Br4812   1.920       .  S
C4806      C4807   1.400       .  A
C4806      H4811   1.084       .  S
C4807      C4808   1.405       .  A
C4808     Br4809   1.916       .  S
C4813      C4814   1.398       .  A
C4813      C4818   1.393       .  A
C4813      H4820   1.084       .  S
C4814      C4815   1.406       .  A
C4815      C4816   1.398       .  A
C4815     Br4822   1.916       .  S
C4816      C4817   1.401       .  A
C4816      H4821   1.081   1_565  S
C4817      C4818   1.411       .  A
C4818     Br4819   1.922       .  S
C4823      C4824   1.404       .  A
C4823      C4828   1.398   1_565  A
C4823      H4830   1.082       .  S
C4824      C4825   1.411       .  A
C4825      C4826   1.394       .  A
C4825     Br4832   1.923       .  S
C4826      C4827   1.399       .  A
C4826      H4831   1.083       .  S
C4827      C4828   1.404   1_565  A
C4828     Br4829   1.916       .  S
C4833      C4834   1.404       .  A
C4833      C4838   1.393       .  A
C4833      H4840   1.084       .  S
C4834      C4835   1.415       .  A
C4835      C4836   1.396       .  A
C4835     Br4842   1.914       .  S
C4836      C4837   1.396       .  A
C4836      H4841   1.084       .  S
C4837      C4838   1.404       .  A
C4838     Br4839   1.918       .  S
C4843      C4844   1.400       .  A
C4843      C4848   1.393       .  A
C4843      H4850   1.085       .  S
C4844      C4845   1.407       .  A
C4845      C4846   1.405       .  A
C4845     Br4852   1.913       .  S
C4846      C4847   1.408       .  A
C4846      H4851   1.083       .  S
C4847      C4848   1.416       .  A
C4848     Br4849   1.925       .  S
C4853      C4854   1.398       .  A
C4853      C4858   1.398       .  A
C4853      H4860   1.084       .  S
C4854      C4855   1.410       .  A
C4855      C4856   1.399       .  A
C4855     Br4862   1.921       .  S
C4856      C4857   1.400       .  A
C4856      H4861   1.082       .  S
C4857      C4858   1.412       .  A
C4858     Br4859   1.919       .  S
C4863      C4864   1.412       .  A
C4863      C4868   1.398       .  A
C4863      H4870   1.083       .  S
C4864      C4865   1.415       .  A
C4865      C4866   1.390       .  A
C4865     Br4872   1.923       .  S
C4866      C4867   1.401       .  A
C4866      H4871   1.085       .  S
C4867      C4868   1.403       .  A
C4868     Br4869   1.919       .  S
C4873      C4874   1.402       .  A
C4873      C4878   1.404       .  A
C4873      H4880   1.084       .  S
C4874      C4875   1.411       .  A
C4875      C4876   1.413       .  A
C4875     Br4882   1.915       .  S
C4876      C4877   1.408       .  A
C4876      H4881   1.083       .  S
C4877      C4878   1.416       .  A
C4878     Br4879   1.920       .  S
C4883      C4884   1.403       .  A
C4883      C4888   1.408       .  A
C4883      H4890   1.084       .  S
C4884      C4885   1.413       .  A
C4885      C4886   1.404       .  A
C4885     Br4892   1.906       .  S
C4886      C4887   1.399       .  A
C4886      H4891   1.083       .  S
C4887      C4888   1.415       .  A
C4888     Br4889   1.918       .  S
C4893      C4894   1.402       .  A
C4893      C4898   1.389       .  A
C4893      H4900   1.085       .  S
C4894      C4895   1.408       .  A
C4895      C4896   1.407       .  A
C4895     Br4902   1.912       .  S
C4896      C4897   1.406       .  A
C4896      H4901   1.084       .  S
C4897      C4898   1.405       .  A
C4898     Br4899   1.918       .  S
C4903      C4904   1.406       .  A
C4903      C4908   1.407       .  A
C4903      H4910   1.083       .  S
C4904      C4905   1.411       .  A
C4905      C4906   1.385       .  A
C4905     Br4912   1.908       .  S
C4906      C4907   1.400       .  A
C4906      H4911   1.084       .  S
C4907      C4908   1.417       .  A
C4908     Br4909   1.920       .  S
C4913      C4914   1.398       .  A
C4913      C4918   1.390       .  A
C4913      H4920   1.084       .  S
C4914      C4915   1.408       .  A
C4915      C4916   1.409       .  A
C4915     Br4922   1.908       .  S
C4916      C4917   1.407       .  A
C4916      H4921   1.083       .  S
C4917      C4918   1.409       .  A
C4918     Br4919   1.911       .  S
C4923      C4924   1.409       .  A
C4923      C4928   1.409       .  A
C4923      H4930   1.083       .  S
C4924      C4925   1.416       .  A
C4925      C4926   1.403       .  A
C4925     Br4932   1.921       .  S
C4926      C4927   1.402       .  A
C4926      H4931   1.084       .  S
C4927      C4928   1.409       .  A
C4928     Br4929   1.917       .  S
C4933      C4934   1.403       .  A
C4933      C4938   1.402       .  A
C4933      H4940   1.084       .  S
C4934      C4935   1.409       .  A
C4935      C4936   1.402       .  A
C4935     Br4942   1.919       .  S
C4936      C4937   1.402       .  A
C4936      H4941   1.084       .  S
C4937      C4938   1.410       .  A
C4938     Br4939   1.920       .  S
C4943      C4944   1.404       .  A
C4943      C4948   1.410       .  A
C4943      H4950   1.083       .  S
C4944      C4945   1.418       .  A
C4945      C4946   1.407       .  A
C4945     Br4952   1.921       .  S
C4946      C4947   1.400       .  A
C4946      H4951   1.083       .  S
C4947      C4948   1.414       .  A
C4948     Br4949   1.918       .  S
C4953      C4954   1.400       .  A
C4953      C4958   1.385       .  A
C4953      H4960   1.084       .  S
C4954      C4955   1.409       .  A
C4955      C4956   1.396       .  A
C4955     Br4962   1.906       .  S
C4956      C4957   1.401       .  A
C4956      H4961   1.084       .  S
C4957      C4958   1.409       .  A
C4958     Br4959   1.908       .  S
C4963      C4964   1.404       .  A
C4963      C4968   1.408       .  A
C4963      H4970   1.083       .  S
C4964      C4965   1.418       .  A
C4965      C4966   1.394       .  A
C4965     Br4972   1.922       .  S
C4966      C4967   1.401       .  A
C4966      H4971   1.084       .  S
C4967      C4968   1.420       .  A
C4968     Br4969   1.921       .  S
C4973      C4974   1.419       .  A
C4973      C4978   1.424       .  A
C4973      H4980   1.083       .  S
C4974      C4975   1.424       .  A
C4975      C4976   1.389       .  A
C4975     Br4982   1.921       .  S
C4976      C4977   1.395       .  A
C4976      H4981   1.081       .  S
C4977      C4978   1.413       .  A
C4978     Br4979   1.913       .  S
C4983      C4984   1.402       .  A
C4983      C4988   1.404       .  A
C4983      H4990   1.083       .  S
C4984      C4985   1.410       .  A
C4985      C4986   1.389       .  A
C4985     Br4992   1.901       .  S
C4986      C4987   1.393       .  A
C4986      H4991   1.085       .  S
C4987      C4988   1.410       .  A
C4988     Br4989   1.915       .  S
