geometry optimzed in LAMMPS
_audit_creation_date              2020-11-30 
_audit_creation_method            'lammps2cif' 
_symmetry_space_group_name_H-M    'P1' 
_symmetry_Int_Tables_number       1 
_symmetry_cell_setting            triclinic 
loop_ 
_symmetry_equiv_pos_as_xyz 
  x,y,z 
_cell_length_a                    34.6029617 
_cell_length_b                    34.49460559967712 
_cell_length_c                    34.858406624398924 
_cell_angle_alpha                 90.21422500201959 
_cell_angle_beta                  91.29621863554242 
_cell_angle_gamma                 89.35684724485944 
loop_ 
_atom_site_label 
_atom_site_type_symbol 
_atom_site_fract_x 
_atom_site_fract_y 
_atom_site_fract_z 
_atom_site_charge 
O1          O  0.29865246  0.67554883  0.73559334    -0.80200
O2          O  0.29011201  0.78735331  0.73670837    -0.80300
O3          O  0.23481750  0.69564063  0.65826229    -0.80300
O4          O  0.25152091  0.75896277  0.82752523    -0.80200
O5          O  0.28321935  0.72903925  0.68053583    -0.80300
O6          O  0.29968341  0.73484386  0.79571333    -0.80200
O7          O  0.24528292  0.80934622  0.77526775    -0.80200
O8          O  0.24876168  0.64416544  0.71196004    -0.80300
C9          C  0.28481050  0.64924108  0.71356128     1.09500
C10         C  0.27919136  0.81148192  0.76219297     1.09300
C11         C  0.26945490  0.70751145  0.65470701     1.09500
C12         C  0.28766676  0.75562928  0.82345298     1.09400
O13         O  0.23342959  0.69425000  0.82651784    -0.80200
O14         O  0.20206935  0.75527389  0.66470672    -0.80300
O15         O  0.18042065  0.66304591  0.75429095    -0.80200
O16         O  0.16906661  0.78410571  0.74826363    -0.80200
O17         O  0.21483679  0.81022952  0.71562544    -0.80300
O18         O  0.23588835  0.64088752  0.77667970    -0.80200
O19         O  0.17917032  0.72324845  0.80749993    -0.80200
O20         O  0.16266627  0.71946141  0.69762482    -0.80300
Co21       Co  0.26617928  0.69014375  0.78002688     1.51500
Co22       Co  0.24783570  0.76643259  0.70263233     1.51700
Co23       Co  0.20702267  0.68439709  0.70892525     1.51600
Co24       Co  0.21081170  0.76493722  0.78554874     1.51500
O25         O  0.23272332  0.72649927  0.74446742    -1.42200
C26         C  0.19795893  0.70235933  0.83184626     1.09400
C27         C  0.16792648  0.74242690  0.67019672     1.09500
C28         C  0.19946033  0.63819943  0.77416130     1.09400
C29         C  0.18029587  0.81016101  0.72512587     1.09400
O30         O  0.72288001  0.20759247  0.65241857    -0.80200
O31         O  0.73084032  0.17664115  0.79956059    -0.80300
O32         O  0.82600277  0.23028283  0.72412001    -0.80300
O33         O  0.66125351  0.21885672  0.75885641    -0.80200
O34         O  0.79623730  0.17918755  0.74489256    -0.80300
O35         O  0.70109650  0.18070661  0.72580927    -0.80200
O36         O  0.69872274  0.22507461  0.82513874    -0.80200
O37         O  0.77748498  0.23951568  0.66847732    -0.80300
C38         C  0.75786755  0.21655144  0.64563098     1.09500
C39         C  0.70542063  0.18913724  0.82290448     1.09300
C40         C  0.82373979  0.19390978  0.72579038     1.09500
C41         C  0.66933465  0.18570176  0.74379971     1.09400
O42         O  0.66867869  0.24879519  0.69768760    -0.80200
O43         O  0.82329039  0.24445388  0.79017957    -0.80300
O44         O  0.75419196  0.31874571  0.71181809    -0.80200
O45         O  0.73222659  0.29735175  0.81287467    -0.80200
O46         O  0.76309354  0.24444289  0.83465729    -0.80300
O47         O  0.72436786  0.28196889  0.67257434    -0.80200
O48         O  0.67596907  0.29738336  0.73877038    -0.80200
O49         O  0.80397651  0.29934216  0.76558354    -0.80300
Co50       Co  0.72180242  0.22905088  0.70194664     1.51500
Co51       Co  0.77554936  0.21200221  0.78887657     1.51700
Co52       Co  0.78596749  0.27175020  0.72009535     1.51600
Co53       Co  0.69549475  0.26139061  0.78152910     1.51500
O54         O  0.74318005  0.24583467  0.75156437    -1.42200
C55         C  0.65768212  0.28149782  0.70998781     1.09400
C56         C  0.82842728  0.28039090  0.78503240     1.09500
C57         C  0.73338666  0.31589676  0.68278420     1.09400
C58         C  0.75695213  0.28077831  0.83680293     1.09400
O59         O  0.69825254  0.75639301  0.18729934    -0.80200
O60         O  0.82124050  0.75311709  0.19661255    -0.80300
O61         O  0.72149074  0.83680112  0.23356192    -0.80300
O62         O  0.79255562  0.67443931  0.24003636    -0.80200
O63         O  0.75707754  0.81050355  0.18828728    -0.80300
O64         O  0.76166621  0.69800647  0.18916548    -0.80200
O65         O  0.84177109  0.73059286  0.25112265    -0.80200
O66         O  0.66965610  0.78327448  0.23591036    -0.80300
C67         C  0.67034547  0.77675239  0.20042129     1.09500
C68         C  0.84452395  0.73078240  0.21573291     1.09300
C69         C  0.73370349  0.83677369  0.19912783     1.09500
C70         C  0.78344930  0.67185358  0.20437658     1.09400
O71         O  0.72858416  0.66968416  0.25807705    -0.80200
O72         O  0.78134297  0.84142273  0.26496638    -0.80300
O73         O  0.69577626  0.75281743  0.30768760    -0.80200
O74         O  0.81123830  0.76089732  0.31683665    -0.80200
O75         O  0.83647165  0.79348448  0.26915833    -0.80300
O76         O  0.67425905  0.71989682  0.25783242    -0.80200
O77         O  0.75245281  0.69628132  0.31030451    -0.80200
O78         O  0.75079519  0.81223037  0.31090045    -0.80300
Co79       Co  0.71948005  0.71533012  0.22338133     1.51500
Co80       Co  0.79521217  0.79569958  0.22917659     1.51700
Co81       Co  0.71359632  0.79309158  0.27196043     1.51600
Co82       Co  0.79511624  0.71860567  0.27920856     1.51500
O83         O  0.75598318  0.75556320  0.25082564    -1.42200
C84         C  0.73313322  0.66906402  0.29416631     1.09400
C85         C  0.77024162  0.84050471  0.29982984     1.09500
C86         C  0.67258307  0.72813069  0.29325486     1.09400
C87         C  0.83683823  0.78449598  0.30425822     1.09400
C88         C  0.52197960  0.00186221  0.03061664     0.02200
C89         C  0.49371925  0.97129565  0.02685097     0.02200
C90         C  0.46728363  0.96989572  0.99360897     0.02200
C91         C  0.47027607  0.99897954  0.96331075     0.02200
C92         C  0.49861821  0.03009577  0.96791467     0.02200
C93         C  0.52211935  0.03311671  0.00304487     0.02200
N94         N  0.63018612  0.99554512  0.16328602    -0.03600
C95         C  0.63766053  0.96097834  0.18141387    -0.01000
C96         C  0.62907755  0.96431521  0.21991031    -0.23900
C97         C  0.62140459  0.00259178  0.22699831    -0.24100
C98         C  0.62397429  0.02180899  0.19248846    -0.01100
H99         H  0.63575129  0.94314624  0.24195688     0.12700
H100        H  0.62033825  0.01578375  0.25518741     0.12700
N101        N  0.62405096  0.16610037  0.99128284    -0.03600
C102        C  0.62751734  0.19759343  0.01568801    -0.01000
C103        C  0.65097693  0.22538923  0.00027092    -0.23900
C104        C  0.66445337  0.21085855  0.96701477    -0.24100
C105        C  0.64869162  0.17460227  0.96220522    -0.01100
H106        H  0.66081571  0.25182355  0.01401923     0.12700
H107        H  0.68417144  0.22513287  0.94809838     0.12700
N108        N  0.35556960  0.97256698  0.83650998    -0.03600
C109        C  0.33310339  0.99943989  0.81660461    -0.01000
C110        C  0.32336099  0.98548812  0.78054714    -0.23900
C111        C  0.34171113  0.95090138  0.77648096    -0.24100
C112        C  0.35663577  0.94073547  0.81239444    -0.01100
H113        H  0.30713370  0.00064048  0.75816976     0.12700
H114        H  0.33680581  0.93154734  0.75233049     0.12700
N115        N  0.52206667  0.11299031  0.82638508    -0.03600
C116        C  0.48514735  0.11176139  0.81112236    -0.01000
C117        C  0.48281347  0.08487685  0.78195440    -0.23900
C118        C  0.51952159  0.07171939  0.77571185    -0.24100
C119        C  0.54377241  0.09360383  0.79899440    -0.01100
H120        H  0.45878901  0.08122425  0.76215630     0.12700
H121        H  0.52787788  0.05665636  0.74982178     0.12700
N122        N  0.49322496  0.84358094  0.13909059    -0.03600
C123        C  0.51886143  0.81260259  0.13807078    -0.01000
C124        C  0.49966750  0.77841977  0.14350706    -0.23900
C125        C  0.46222873  0.78778421  0.14998781    -0.24100
C126        C  0.45860635  0.82787583  0.14948540    -0.01100
H127        H  0.51252396  0.75004478  0.14827181     0.12700
H128        H  0.44259198  0.76764572  0.16251140     0.12700
N129        N  0.35959784  0.83556495  0.98413000    -0.03600
C130        C  0.33572933  0.82121649  0.01195045    -0.01000
C131        C  0.32395868  0.78418146  0.00324469    -0.23900
C132        C  0.33965841  0.77437429  0.96950554    -0.24100
C133        C  0.35954490  0.80620518  0.95667371    -0.01100
H134        H  0.30597801  0.76581893  0.02037718     0.12700
H135        H  0.33274169  0.74833466  0.95341412     0.12700
C136        C  0.03282164  0.51840094  0.00583622     0.02200
C137        C  0.03575830  0.48737449  0.97768595     0.02200
C138        C  0.00534481  0.45840073  0.97449744     0.02200
C139        C  0.97283001  0.45895264  0.00026468     0.02200
C140        C  0.97026804  0.48964363  0.02874814     0.02200
C141        C  0.00032058  0.51889687  0.03183467     0.02200
N142        N  0.13917224  0.65170750  0.01062045    -0.03600
C143        C  0.14085450  0.67738853  0.98078260    -0.01000
C144        C  0.15372700  0.71297789  0.99381537    -0.23900
C145        C  0.16425642  0.70850148  0.03124099    -0.24100
C146        C  0.15491336  0.67111264  0.04174311    -0.01100
H147        H  0.16105856  0.73761298  0.97633461     0.12700
H148        H  0.17777887  0.73042263  0.04915666     0.12700
N149        N  0.15710450  0.46824939  0.86141344    -0.03600
C150        C  0.15891905  0.48968689  0.82798902    -0.01000
C151        C  0.17768160  0.46947873  0.79978881    -0.23900
C152        C  0.18911176  0.43549741  0.81506770    -0.24100
C153        C  0.17779512  0.43472376  0.85284914    -0.01100
H154        H  0.18680578  0.48040650  0.77239434     0.12700
H155        H  0.20933751  0.41586075  0.80164234     0.12700
N156        N  0.00534371  0.62852208  0.16347817    -0.03600
C157        C  0.97574397  0.62877031  0.18906254    -0.01000
C158        C  0.98947730  0.61739201  0.22510600    -0.23900
C159        C  0.02794839  0.61264439  0.22337919    -0.24100
C160        C  0.03776445  0.62498384  0.18751751    -0.01100
H161        H  0.97493377  0.62004613  0.25212584     0.12700
H162        H  0.04687614  0.61136382  0.24856267     0.12700
N163        N  0.83141593  0.49613657  0.12259780    -0.03600
C164        C  0.80831400  0.46422150  0.12520153    -0.01000
C165        C  0.76975987  0.47545780  0.12447268    -0.23900
C166        C  0.76856317  0.51482758  0.12214845    -0.24100
C167        C  0.80635997  0.52733565  0.12278711    -0.01100
H168        H  0.74502747  0.45706989  0.12845165     0.12700
H169        H  0.74297227  0.53267704  0.12589038     0.12700
N170        N  0.00222843  0.34649549  0.84735270    -0.03600
C171        C  0.97568563  0.34921320  0.81762268    -0.01000
C172        C  0.99352184  0.34510975  0.78278508    -0.23900
C173        C  0.03041218  0.33407523  0.79094568    -0.24100
C174        C  0.03520464  0.33355380  0.83031164    -0.01100
H175        H  0.97948770  0.34318034  0.75475855     0.12700
H176        H  0.05204442  0.32643452  0.76988703     0.12700
N177        N  0.85497807  0.33299066  0.00505102    -0.03600
C178        C  0.85964730  0.30325589  0.03142363    -0.01000
C179        C  0.87102990  0.26944700  0.01319754    -0.23900
C180        C  0.86273737  0.27479155  0.97554581    -0.24100
C181        C  0.84959429  0.31266236  0.97129013    -0.01100
H182        H  0.87467010  0.24119481  0.02636080     0.12700
H183        H  0.86087217  0.25168391  0.95454454     0.12700
C184        C  0.54184006  0.48084895  0.50478671     0.02200
C185        C  0.51065533  0.47999196  0.53239554     0.02200
C186        C  0.48106028  0.51023861  0.53187387     0.02200
C187        C  0.47963996  0.53757867  0.50038459     0.02200
C188        C  0.50982372  0.53830315  0.47241355     0.02200
C189        C  0.54087471  0.50965675  0.47410871     0.02200
N190        N  0.48622651  0.33432918  0.61853107    -0.03600
C191        C  0.51400455  0.30753396  0.62957629    -0.01000
C192        C  0.50027954  0.27029313  0.62798184    -0.23900
C193        C  0.46266123  0.27291226  0.61726979    -0.24100
C194        C  0.45365000  0.31198217  0.61340015    -0.01100
H195        H  0.51546925  0.24412118  0.63695737     0.12700
H196        H  0.44267773  0.24900511  0.61797450     0.12700
N197        N  0.36028054  0.65873896  0.48932860    -0.03600
C198        C  0.35603073  0.68325105  0.45869785    -0.01000
C199        C  0.36340981  0.72091825  0.47058782    -0.23900
C200        C  0.36416577  0.72080091  0.50971485    -0.24100
C201        C  0.35993592  0.68275131  0.52063321    -0.01100
H202        H  0.35879150  0.74686494  0.45376228     0.12700
H203        H  0.36152051  0.74619353  0.52785143     0.12700
N204        N  0.65624097  0.49779544  0.35235906    -0.03600
C205        C  0.68792773  0.52188585  0.35366960    -0.01000
C206        C  0.72090319  0.50157384  0.34437834    -0.11900
C207        C  0.70996256  0.46498238  0.33532011    -0.24100
C208        C  0.67021584  0.46302970  0.33875247    -0.01100
H209        H  0.74909054  0.51353664  0.33917020     0.12700
H210        H  0.72823240  0.44439405  0.32059418     0.12700
N211        N  0.51260056  0.66816319  0.36342756    -0.03600
C212        C  0.48601579  0.69242489  0.34561812    -0.01000
C213        C  0.50271333  0.72715569  0.33633577    -0.23900
C214        C  0.54058138  0.72463254  0.34746864    -0.24100
C215        C  0.54669863  0.68771901  0.36214396    -0.01100
H216        H  0.48887169  0.75133879  0.32159027     0.12700
H217        H  0.56253620  0.74536754  0.34035836     0.12700
N218        N  0.35945853  0.49071833  0.64129708    -0.03600
C219        C  0.33745963  0.52301224  0.64943993    -0.01000
C220        C  0.29965970  0.51278206  0.65648562    -0.23900
C221        C  0.29686353  0.47448547  0.64994914    -0.24100
C222        C  0.33383443  0.46094400  0.64314169    -0.01100
H223        H  0.27597660  0.53157326  0.66466298     0.12700
H224        H  0.27174613  0.45726650  0.65606431     0.12700
N225        N  0.66281704  0.35739728  0.51696468    -0.03600
C226        C  0.68475933  0.34727438  0.54913002    -0.01000
C227        C  0.70193554  0.31127935  0.54464350    -0.23900
C228        C  0.69292666  0.29868939  0.50909414    -0.24100
C229        C  0.66930367  0.32651295  0.49236182    -0.01100
H230        H  0.72133009  0.29664621  0.56472152     0.12700
H231        H  0.70466286  0.27288309  0.49571028     0.12700
C232        C  0.03026067  0.00030050  0.53735505     0.02200
C233        C  0.02962008  0.97038384  0.50730802     0.02200
C234        C  0.00212101  0.97377768  0.47489109     0.02200
C235        C  0.97365973  0.00546784  0.47353033     0.02200
C236        C  0.97488719  0.03599872  0.50271150     0.02200
C237        C  0.00312328  0.03343909  0.53466095     0.02200
N238        N  0.00483108  0.14436698  0.66479051    -0.03600
C239        C  0.03931965  0.15333340  0.68323086    -0.01000
C240        C  0.03482363  0.15040673  0.72254452    -0.23900
C241        C  0.99662429  0.14455830  0.72900017    -0.24100
C242        C  0.97817092  0.14137361  0.69366932    -0.01100
H243        H  0.05550315  0.15929101  0.74450676     0.12700
H244        H  0.98318371  0.14650187  0.75667848     0.12700
N245        N  0.14702800  0.99184749  0.66668350    -0.03600
C246        C  0.17576154  0.01766753  0.67598480    -0.01000
C247        C  0.19615076  0.00687682  0.70873932    -0.23900
C248        C  0.18041322  0.97383747  0.72108820    -0.24100
C249        C  0.15117059  0.96442096  0.69527966    -0.01100
H250        H  0.21891032  0.02285305  0.72338215     0.12700
H251        H  0.19108684  0.95675274  0.74509400     0.12700
N252        N  0.14242704  0.83916264  0.51647578    -0.03600
C253        C  0.15257815  0.81810527  0.54875343    -0.01000
C254        C  0.19095331  0.80660996  0.54754578    -0.23900
C255        C  0.20492469  0.81849674  0.51366744    -0.24100
C256        C  0.17532577  0.83795366  0.49464184    -0.01100
H257        H  0.20590943  0.78709968  0.56725326     0.12700
H258        H  0.23277942  0.81040896  0.50240041     0.12700
N259        N  0.84853484  0.15197343  0.48983826    -0.03600
C260        C  0.82929496  0.15857776  0.45559768    -0.01000
C261        C  0.79038838  0.15034569  0.45944896    -0.23900
C262        C  0.78429142  0.14407939  0.49729328    -0.24100
C263        C  0.81976105  0.14698176  0.51566757    -0.01100
H264        H  0.76728294  0.15767583  0.43943088     0.12700
H265        H  0.75633840  0.14374233  0.51062086     0.12700
N266        N  0.85659740  0.00462609  0.34623807    -0.03600
C267        C  0.85778567  0.03065018  0.31621524    -0.01000
C268        C  0.85343500  0.01156065  0.28151666    -0.23900
C269        C  0.84847548  0.97355486  0.28939353    -0.24100
C270        C  0.84746205  0.97007508  0.32883009    -0.01100
H271        H  0.84960024  0.02447971  0.25342080     0.12700
H272        H  0.83887369  0.95225867  0.26855955     0.12700
N273        N  0.01518219  0.85333856  0.35407307    -0.03600
C274        C  0.04944627  0.84180746  0.33801848    -0.01000
C275        C  0.04756709  0.80332314  0.32703212    -0.23900
C276        C  0.01149723  0.79083432  0.33376229    -0.24100
C277        C  0.99169463  0.82131538  0.35004197    -0.01100
H278        H  0.06830870  0.78766858  0.31001668     0.12700
H279        H  0.99968618  0.76361100  0.32369288     0.12700
O280        O  0.24372531  0.19162903  0.69178758    -0.80200
O281        O  0.25995866  0.31039621  0.70668225    -0.80300
O282        O  0.17343417  0.22007576  0.74174462    -0.80300
O283        O  0.34124806  0.27261281  0.73515280    -0.80200
O284        O  0.19839957  0.25842362  0.69805750    -0.80300
O285        O  0.30454907  0.24953238  0.68854727    -0.80200
O286        O  0.29514239  0.32843231  0.75569104    -0.80200
O287        O  0.22093002  0.16299406  0.74238750    -0.80300
C288        C  0.22327135  0.16511276  0.70658816     1.09500
C289        C  0.28323478  0.33400966  0.72136555     1.09300
C290        C  0.17206564  0.23504994  0.70794990     1.09500
C291        C  0.33335210  0.26968952  0.69948405     1.09400
O292        O  0.34437469  0.20697618  0.74991630    -0.80200
O293        O  0.17762487  0.27896950  0.77220032    -0.80300
O294        O  0.26266650  0.18030183  0.80958506    -0.80200
O295        O  0.27459352  0.28740548  0.82574513    -0.80200
O296        O  0.23696729  0.32399225  0.78847526    -0.80300
O297        O  0.28683455  0.15982850  0.75474686    -0.80200
O298        O  0.32846736  0.22912632  0.80613598    -0.80200
O299        O  0.20280284  0.24577328  0.81921202    -0.80300
Co300      Co  0.29154736  0.20594867  0.72225298     1.51500
Co301      Co  0.22215913  0.28948023  0.74112526     1.51700
Co302      Co  0.21895914  0.20625471  0.77886735     1.51600
Co303      Co  0.30567288  0.27590012  0.78027485     1.51500
O304        O  0.25955142  0.24393469  0.75603345    -1.42200
C305        C  0.35184685  0.21004909  0.78574679     1.09400
C306        C  0.17795058  0.27081231  0.80683104     1.09500
C307        C  0.28356360  0.15589533  0.79047890     1.09400
C308        C  0.25166201  0.31596568  0.82186167     1.09400
O309        O  0.75486388  0.17574273  0.28806170    -0.80200
O310        O  0.73538055  0.32902160  0.20245832    -0.80300
O311        O  0.78136727  0.20381239  0.17283961    -0.80300
O312        O  0.80272480  0.26959465  0.30445817    -0.80200
O313        O  0.75938041  0.26475146  0.17552270    -0.80300
O314        O  0.76053977  0.23491025  0.33713918    -0.80200
O315        O  0.78876227  0.31629967  0.23505344    -0.80200
O316        O  0.79868544  0.20221785  0.25256082    -0.80300
C317        C  0.78937703  0.17681814  0.27739211     1.09500
C318        C  0.77115192  0.33468100  0.20790940     1.09300
C319        C  0.78161887  0.23873360  0.16060662     1.09500
C320        C  0.79465644  0.24836202  0.33318470     1.09400
O321        O  0.68261073  0.26041108  0.31657522    -0.80200
O322        O  0.68145085  0.28137955  0.16536794    -0.80300
O323        O  0.72596681  0.17221089  0.22483504    -0.80200
O324        O  0.71581931  0.33974209  0.26863027    -0.80200
O325        O  0.67029812  0.30245545  0.24237002    -0.80300
O326        O  0.67967094  0.19334424  0.26260661    -0.80200
O327        O  0.73138275  0.29843659  0.33139607    -0.80200
O328        O  0.70452873  0.22366686  0.18128902    -0.80300
Co329      Co  0.71870680  0.21894595  0.29862263     1.51500
Co330      Co  0.71194957  0.27739382  0.21131058     1.51700
Co331      Co  0.75482786  0.22098496  0.21770221     1.51600
Co332      Co  0.75977657  0.30305869  0.28278921     1.51500
O333        O  0.73619017  0.25583420  0.25801887    -1.42200
C334        C  0.69746499  0.28688182  0.33767083     1.09400
C335        C  0.68107761  0.24478530  0.16066458     1.09500
C336        C  0.69284957  0.16756302  0.23928649     1.09400
C337        C  0.68030155  0.33373062  0.25966698     1.09400
O338        O  0.31136239  0.71126644  0.26332830    -0.80200
O339        O  0.19336566  0.71571858  0.24393671    -0.80300
O340        O  0.27637905  0.75159373  0.33589506    -0.80300
O341        O  0.22458202  0.75601316  0.16744233    -0.80200
O342        O  0.24330992  0.70682066  0.30428795    -0.80300
O343        O  0.25270058  0.70642727  0.19702999    -0.80200
O344        O  0.16728154  0.76471815  0.21497897    -0.80200
O345        O  0.33385600  0.76327964  0.29123591    -0.80300
C346        C  0.33591590  0.72726202  0.28618639     1.09500
C347        C  0.16622789  0.72881434  0.22377181     1.09300
C348        C  0.26489411  0.71647454  0.33245033     1.09500
C349        C  0.22934379  0.71992211  0.17058417     1.09400
O350        O  0.28914849  0.77257131  0.16952326    -0.80200
O351        O  0.21392008  0.77710033  0.33467837    -0.80300
O352        O  0.30602665  0.83375054  0.26002528    -0.80200
O353        O  0.20233833  0.83792644  0.24323777    -0.80200
O354        O  0.16987105  0.79438678  0.27561211    -0.80300
O355        O  0.33424584  0.78518775  0.22802329    -0.80200
O356        O  0.26139856  0.82693647  0.18644692    -0.80200
O357        O  0.24321729  0.82888809  0.31681987    -0.80300
Co358      Co  0.29311085  0.74402789  0.21840519     1.51500
Co359      Co  0.20857344  0.74906236  0.28580061     1.51700
Co360      Co  0.28605586  0.79448000  0.29673360     1.51600
Co361      Co  0.21712830  0.79621251  0.20748724     1.51500
O362        O  0.25167127  0.77154814  0.25189157    -1.42200
C363        C  0.28316612  0.80804655  0.16356509     1.09400
C364        C  0.22102856  0.81210031  0.34018350     1.09500
C365        C  0.33278110  0.82106655  0.23816967     1.09400
C366        C  0.17490919  0.82968602  0.26505433     1.09400
C367        C  0.11028918  0.86043066  0.25536649    -0.01900
C368        C  0.14570395  0.85977648  0.27550578     0.07700
C369        C  0.14662132  0.87647582  0.31223211    -0.02100
C370        C  0.11264789  0.87749818  0.33392802    -0.02100
C371        C  0.07747350  0.86570308  0.31660658     0.07900
C372        C  0.07576883  0.86364572  0.27589348    -0.02300
Br373      Br  0.02671753  0.85971281  0.24913023    -0.00800
Br374      Br  0.11033621  0.85757655  0.20020656    -0.00900
Br375      Br  0.11436274  0.89544454  0.38600220    -0.00800
Br376      Br  0.19037595  0.90745487  0.32633336    -0.00800
C377        C  0.82250023  0.09090326  0.33899447    -0.01900
C378        C  0.85188884  0.07404767  0.31691070     0.07700
C379        C  0.86666867  0.09645364  0.28640557    -0.02100
C380        C  0.84712892  0.13024110  0.27312866    -0.02100
C381        C  0.81546521  0.14531925  0.29336680     0.07900
C382        C  0.80536974  0.12661661  0.32818720    -0.02300
Br383      Br  0.76632146  0.14787751  0.36157875    -0.00800
Br384      Br  0.80326421  0.06512987  0.38327514    -0.00900
Br385      Br  0.86191341  0.15285791  0.22508801    -0.00800
Br386      Br  0.91321270  0.08028619  0.26119534    -0.00800
C387        C  0.81046175  0.25202294  0.40235821    -0.01900
C388        C  0.82254901  0.24105615  0.36572830     0.07700
C389        C  0.85077616  0.21158871  0.36325660    -0.02100
C390        C  0.85735074  0.18583952  0.39447979    -0.02100
C391        C  0.83764186  0.19177276  0.42923599     0.07900
C392        C  0.81723946  0.22748544  0.43393275    -0.02300
Br393      Br  0.79240843  0.24105357  0.48120484    -0.00800
Br394      Br  0.78200249  0.29980176  0.40829119    -0.00900
Br395      Br  0.89019744  0.14107060  0.38805268    -0.00800
Br396      Br  0.88165582  0.20915661  0.31828485    -0.00800
C397        C  0.21358801  0.86108194  0.43822957    -0.01900
C398        C  0.17911991  0.84440370  0.45231111     0.07700
C399        C  0.15626226  0.82226631  0.42668164    -0.02100
C400        C  0.16850759  0.81479376  0.38905594    -0.02100
C401        C  0.20425532  0.82926608  0.37584791     0.07900
C402        C  0.22611017  0.85332883  0.40054838    -0.02300
Br403      Br  0.27603492  0.87142432  0.38498054    -0.00800
Br404      Br  0.24725876  0.89095013  0.47151480    -0.00900
Br405      Br  0.13627890  0.78162762  0.35713810    -0.00800
Br406      Br  0.10934255  0.79861866  0.44325600    -0.00800
C407        C  0.22626345  0.11042394  0.66004186    -0.01900
C408        C  0.20427355  0.13339416  0.68506350     0.07700
C409        C  0.16819912  0.11926667  0.69787875    -0.02100
C410        C  0.15422339  0.08365029  0.68470266    -0.02100
C411        C  0.17889092  0.05844517  0.66506838     0.07900
C412        C  0.21536007  0.07186082  0.65310602    -0.02300
Br413      Br  0.25498689  0.03540392  0.63724832    -0.00800
Br414      Br  0.27562014  0.12816330  0.64251323    -0.00900
Br415      Br  0.10503810  0.06521143  0.70248730    -0.00800
Br416      Br  0.13981674  0.14339094  0.73902364    -0.00800
C417        C  0.06658886  0.22059856  0.68845084    -0.01900
C418        C  0.06818751  0.18343654  0.67081074     0.07700
C419        C  0.10242321  0.17399537  0.65085966    -0.02100
C420        C  0.13574822  0.19766624  0.65534241    -0.02100
C421        C  0.13660687  0.22729077  0.68326026     0.07900
C422        C  0.10088477  0.24145349  0.69570511    -0.02300
Br423      Br  0.09979934  0.29013423  0.72196126    -0.00800
Br424      Br  0.01800239  0.24156976  0.70573788    -0.00900
Br425      Br  0.17774945  0.19381749  0.62033222    -0.00800
Br426      Br  0.10491738  0.12890902  0.61852310    -0.00800
C427        C  0.02414376  0.92313543  0.37699364    -0.01900
C428        C  0.01013799  0.88499486  0.38212908     0.07700
C429        C  0.99254968  0.87807078  0.41755509    -0.02100
C430        C  0.98268241  0.90892654  0.44192317    -0.02100
C431        C  0.00368196  0.94399329  0.44164566     0.07900
C432        C  0.02725998  0.94880552  0.40896199    -0.02300
Br433      Br  0.06830769  0.98556744  0.40766149    -0.00800
Br434      Br  0.03553318  0.94353187  0.32720167    -0.00900
Br435      Br  0.93560160  0.90182175  0.46808175    -0.00800
Br436      Br  0.98884102  0.82720240  0.43889331    -0.00800
C437        C  0.92402324  0.01175940  0.37222465    -0.01900
C438        C  0.88448756  0.00550774  0.37872403     0.07700
C439        C  0.87435079  0.99600766  0.41671754    -0.02100
C440        C  0.90293555  0.99480684  0.44704411    -0.02100
C441        C  0.94201155  0.00635122  0.44115976     0.07900
C442        C  0.95085468  0.01647285  0.40289143    -0.02300
Br443      Br  0.99784938  0.04073482  0.38974378    -0.00800
Br444      Br  0.94418486  0.00618839  0.32128446    -0.00900
Br445      Br  0.88724620  0.97435182  0.49540574    -0.00800
Br446      Br  0.82212672  0.98029084  0.42702820    -0.00800
C447        C  0.94830297  0.10508045  0.48045367    -0.01900
C448        C  0.94420530  0.06915531  0.50080479     0.07700
C449        C  0.90686821  0.06353682  0.51554124    -0.02100
C450        C  0.87554985  0.08601292  0.50254074    -0.02100
C451        C  0.88118978  0.12468527  0.49167166     0.07900
C452        C  0.91917718  0.13466519  0.48233098    -0.02300
Br453      Br  0.93112358  0.18750107  0.47015108    -0.00800
Br454      Br  0.98723762  0.11400775  0.44360490    -0.00900
Br455      Br  0.82774068  0.05982545  0.49183253    -0.00800
Br456      Br  0.89670336  0.03727003  0.56201816    -0.00800
C457        C  0.99701114  0.07819349  0.63653055    -0.01900
C458        C  0.00383487  0.11813957  0.63155976     0.07700
C459        C  0.01236744  0.13057347  0.59415874    -0.02100
C460        C  0.01431087  0.10338925  0.56328847    -0.02100
C461        C  0.00245617  0.06394275  0.56743340     0.07900
C462        C  0.99162785  0.05318258  0.60489737    -0.02300
Br463      Br  0.96521908  0.00608636  0.61506848    -0.00800
Br464      Br  0.00189092  0.05485488  0.68647872    -0.00900
Br465      Br  0.03818455  0.12166144  0.51815575    -0.00800
Br466      Br  0.02561656  0.18421303  0.58534842    -0.00800
C467        C  0.12579503  0.01147337  0.59873275    -0.01900
C468        C  0.11814403  0.99378251  0.63448980     0.07700
C469        C  0.08066085  0.97828772  0.63747913    -0.02100
C470        C  0.05584545  0.97449053  0.60469932    -0.02100
C471        C  0.06055236  0.99774762  0.57127212     0.07900
C472        C  0.09567560  0.01884156  0.57121818    -0.02300
Br473      Br  0.10465446  0.05952815  0.53549445    -0.00800
Br474      Br  0.17739617  0.01894367  0.58164787    -0.00900
Br475      Br  0.01966082  0.93338705  0.60784656    -0.00800
Br476      Br  0.05907902  0.96728249  0.68646766    -0.00800
C477        C  0.04651642  0.89648601  0.51745490    -0.01900
C478        C  0.05832174  0.93531338  0.50952438     0.07700
C479        C  0.09874329  0.93999878  0.50512290    -0.02100
C480        C  0.12525534  0.90946186  0.51256698    -0.02100
C481        C  0.11334060  0.87063307  0.51463819     0.07900
C482        C  0.07309572  0.86443662  0.51686389    -0.02300
Br483      Br  0.05372058  0.81249608  0.52194427    -0.00800
Br484      Br  0.99561245  0.88540738  0.53429023    -0.00900
Br485      Br  0.17719204  0.92288844  0.52720694    -0.00800
Br486      Br  0.12080882  0.98549755  0.48433407    -0.00800
C487        C  0.64889945  0.28819681  0.43421032    -0.01900
C488        C  0.66287813  0.32365294  0.45008510     0.07700
C489        C  0.68313488  0.34889083  0.42644283    -0.02100
C490        C  0.69079894  0.33851850  0.38830930    -0.02100
C491        C  0.67890351  0.30213823  0.37308186     0.07900
C492        C  0.65566654  0.27821782  0.39565838    -0.02300
Br493      Br  0.63641640  0.22929608  0.37617998    -0.00800
Br494      Br  0.62667847  0.24904858  0.46672080    -0.00900
Br495      Br  0.72131785  0.37378411  0.35885877    -0.00800
Br496      Br  0.70820809  0.39382405  0.44807891    -0.00800
C497        C  0.33992941  0.42304089  0.70061543    -0.01900
C498        C  0.34182789  0.42279347  0.66017971     0.07700
C499        C  0.32575140  0.39139253  0.63964597    -0.02100
C500        C  0.30277315  0.36416855  0.65836157    -0.02100
C501        C  0.29899038  0.36626897  0.69868114     0.07900
C502        C  0.31433692  0.39822322  0.71848139    -0.02300
Br503      Br  0.29008433  0.41544918  0.76468697    -0.00800
Br504      Br  0.36242772  0.46465948  0.73045212    -0.00900
Br505      Br  0.27189981  0.32915911  0.62739742    -0.00800
Br506      Br  0.33137070  0.38901040  0.58491034    -0.00800
C507        C  0.41793622  0.70712769  0.35870776    -0.01900
C508        C  0.44432118  0.68690789  0.33590536     0.07700
C509        C  0.43258701  0.67715031  0.29774018    -0.02100
C510        C  0.39411400  0.68319870  0.28460977    -0.02100
C511        C  0.36918794  0.70697735  0.30592848     0.07900
C512        C  0.38188656  0.71939900  0.34321091    -0.02300
Br513      Br  0.35355768  0.75756099  0.37237434    -0.00800
Br514      Br  0.43498637  0.72489446  0.40882038    -0.00900
Br515      Br  0.37835178  0.66479772  0.23424186    -0.00800
Br516      Br  0.47027992  0.66613029  0.25939012    -0.00800
C517        C  0.66140115  0.40240072  0.25071561    -0.01900
C518        C  0.65303435  0.36654286  0.26753446     0.07700
C519        C  0.63270901  0.36716907  0.30204499    -0.02100
C520        C  0.63254528  0.40108158  0.32527508    -0.02100
C521        C  0.64964917  0.43543930  0.31183683     0.07900
C522        C  0.65897475  0.43687653  0.27239643    -0.02300
Br523      Br  0.67506953  0.48475913  0.24954769    -0.00800
Br524      Br  0.68072965  0.40331752  0.19929772    -0.00900
Br525      Br  0.61226196  0.39897063  0.37612205    -0.00800
Br526      Br  0.60456986  0.32190334  0.31593314    -0.00800
C527        C  0.33060084  0.65763900  0.39418422    -0.01900
C528        C  0.32442228  0.67865047  0.42868083     0.07700
C529        C  0.28866657  0.69954357  0.43215330    -0.02100
C530        C  0.26278586  0.70197425  0.40079491    -0.02100
C531        C  0.27408072  0.68953452  0.36458844     0.07900
C532        C  0.30482957  0.66277804  0.36233767    -0.02300
Br533      Br  0.30958726  0.63223856  0.31638417    -0.00800
Br534      Br  0.37636661  0.62619724  0.38793201    -0.00900
Br535      Br  0.21181961  0.72389897  0.40633334    -0.00800
Br536      Br  0.27538498  0.73105775  0.47624768    -0.00800
C537        C  0.38357970  0.29910195  0.60734350    -0.01900
C538        C  0.41304783  0.32334197  0.62228558     0.07700
C539        C  0.40788994  0.33878972  0.65894606    -0.02100
C540        C  0.38337460  0.32072279  0.68481374    -0.02100
C541        C  0.35844723  0.29033339  0.67184324     0.07900
C542        C  0.35777858  0.28091746  0.63212950    -0.02300
Br543      Br  0.32564595  0.24004716  0.61096093    -0.00800
Br544      Br  0.38281767  0.28550850  0.55374902    -0.00900
Br545      Br  0.38777543  0.33788289  0.73791493    -0.00800
Br546      Br  0.43585375  0.38384822  0.67423100    -0.00800
C547        C  0.41089046  0.56047488  0.47866932    -0.01900
C548        C  0.44754789  0.56783994  0.49673265     0.07700
C549        C  0.45363312  0.60512969  0.51197787    -0.02100
C550        C  0.42844914  0.63579232  0.50241430    -0.02100
C551        C  0.39028222  0.62844301  0.48847154     0.07900
C552        C  0.38177746  0.59004711  0.47694096    -0.02300
Br553      Br  0.32976847  0.57720145  0.46124949    -0.00800
Br554      Br  0.39658646  0.50853187  0.46422040    -0.00900
Br555      Br  0.44953415  0.68695623  0.50680595    -0.00800
Br556      Br  0.48479434  0.61146187  0.55809287    -0.00800
C557        C  0.41088106  0.51705646  0.55564472    -0.01900
C558        C  0.45054263  0.51148584  0.56362587     0.07700
C559        C  0.45969148  0.50698971  0.60321342    -0.02100
C560        C  0.43077739  0.49500820  0.62898108    -0.02100
C561        C  0.39201674  0.49038319  0.61559730     0.07900
C562        C  0.38502502  0.49475326  0.57582187    -0.02300
Br563      Br  0.33613658  0.48411375  0.55134332    -0.00800
Br564      Br  0.39388589  0.56899908  0.56765836    -0.00900
Br565      Br  0.44605937  0.48115063  0.68036489    -0.00800
Br566      Br  0.50311647  0.53441405  0.62411733    -0.00800
C567        C  0.48917867  0.57014153  0.40715869    -0.01900
C568        C  0.50976202  0.57173706  0.44308138     0.07700
C569        C  0.52576335  0.60827623  0.45319920    -0.02100
C570        C  0.52084331  0.64086030  0.42893932    -0.02100
C571        C  0.50676570  0.63679926  0.39080503     0.07900
C572        C  0.49064151  0.60091196  0.38025728    -0.02300
Br573      Br  0.46992561  0.59300897  0.32930788    -0.00800
Br574      Br  0.45411561  0.52941178  0.39479702    -0.00900
Br575      Br  0.52938045  0.69232908  0.44946792    -0.00800
Br576      Br  0.55434855  0.61586066  0.50032735    -0.00800
C577        C  0.56065915  0.49078447  0.40494786    -0.01900
C578        C  0.57018370  0.50742138  0.44147769     0.07700
C579        C  0.60907755  0.51949300  0.44617178    -0.02100
C580        C  0.63694148  0.50827946  0.41983495    -0.02100
C581        C  0.62641596  0.50009159  0.38148915     0.07900
C582        C  0.58685860  0.49230102  0.37398915    -0.02300
Br583      Br  0.56797565  0.48133330  0.32273636    -0.00800
Br584      Br  0.51541111  0.46026091  0.39720447    -0.00900
Br585      Br  0.68772981  0.49650968  0.44004949    -0.00800
Br586      Br  0.62560568  0.56186160  0.47735913    -0.00800
C587        C  0.56778442  0.41167122  0.49314340    -0.01900
C588        C  0.57432270  0.44977460  0.50663165     0.07700
C589        C  0.61186428  0.45719619  0.52251553    -0.02100
C590        C  0.64185157  0.42835561  0.52245357    -0.02100
C591        C  0.63399762  0.38926373  0.51196191     0.07900
C592        C  0.59586795  0.38174552  0.49794207    -0.02300
Br593      Br  0.57857967  0.33005929  0.48795741    -0.00800
Br594      Br  0.52012097  0.39883152  0.46734514    -0.00900
Br595      Br  0.69385883  0.44448333  0.53449714    -0.00800
Br596      Br  0.62254330  0.50530054  0.54856531    -0.00800
C597        C  0.47609718  0.41632567  0.54563507    -0.01900
C598        C  0.50439302  0.44358915  0.55706274     0.07700
C599        C  0.52531284  0.43494056  0.59166152    -0.02100
C600        C  0.51626694  0.40191804  0.61425115    -0.02100
C601        C  0.49269527  0.37171313  0.59889301     0.07900
C602        C  0.47544825  0.37908360  0.56230785    -0.02300
Br603      Br  0.45948162  0.33730887  0.52925994    -0.00800
Br604      Br  0.43749494  0.42832234  0.50674086    -0.00900
Br605      Br  0.53356082  0.40250009  0.66700999    -0.00800
Br606      Br  0.56611506  0.46751627  0.61013093    -0.00800
C607        C  0.80319705  0.26885722  0.05979491    -0.01900
C608        C  0.83414140  0.29547196  0.06506913     0.07700
C609        C  0.84851226  0.30130465  0.10300041    -0.02100
C610        C  0.83469756  0.27902212  0.13385896    -0.02100
C611        C  0.80502563  0.25177487  0.12782410     0.07900
C612        C  0.79010876  0.24662343  0.09050377    -0.02300
Br613      Br  0.75252980  0.20744027  0.08063205    -0.00800
Br614      Br  0.77885008  0.26000514  0.01011333    -0.00900
Br615      Br  0.85860819  0.28324961  0.18416104    -0.00800
Br616      Br  0.88525559  0.34140833  0.11374823    -0.00800
C617        C  0.10317860  0.34741047  0.83229370    -0.01900
C618        C  0.07420442  0.32446305  0.84739455     0.07700
C619        C  0.08461241  0.28601718  0.85907456    -0.02100
C620        C  0.12179992  0.27042029  0.85166871    -0.02100
C621        C  0.14707331  0.29114309  0.82855860     0.07900
C622        C  0.13647702  0.32988916  0.81795958    -0.02300
Br623      Br  0.16018507  0.35771212  0.77666518    -0.00800
Br624      Br  0.09242994  0.40145893  0.82235392    -0.00900
Br625      Br  0.13494972  0.21781726  0.86652618    -0.00800
Br626      Br  0.04818528  0.25141552  0.88055708    -0.00800
C627        C  0.79486678  0.39454555  0.11913575    -0.01900
C628        C  0.81921931  0.42294077  0.13515409     0.07700
C629        C  0.83681940  0.41420304  0.17108025    -0.02100
C630        C  0.82161438  0.38551577  0.19504933    -0.02100
C631        C  0.79112479  0.36190120  0.18155865     0.07900
C632        C  0.77930479  0.36538769  0.14226244    -0.02300
Br633      Br  0.74032267  0.33275910  0.11898433    -0.00800
Br634      Br  0.78042522  0.39872081  0.06563862    -0.00900
Br635      Br  0.84154464  0.38141540  0.24713130    -0.00800
Br636      Br  0.88848915  0.42972353  0.18189160    -0.00800
C637        C  0.06474925  0.69257970  0.19858467    -0.01900
C638        C  0.07110756  0.65272524  0.19004442     0.07700
C639        C  0.10871615  0.63729477  0.19759263    -0.02100
C640        C  0.13988079  0.66174422  0.20751249    -0.02100
C641        C  0.13379875  0.70238823  0.21209241     0.07900
C642        C  0.09566744  0.71681410  0.20950432    -0.02300
Br643      Br  0.08410383  0.76755011  0.22953269    -0.00800
Br644      Br  0.01357214  0.71342837  0.20513588    -0.00900
Br645      Br  0.18981766  0.63738726  0.21763348    -0.00800
Br646      Br  0.11671694  0.58148762  0.20006220    -0.00800
C647        C  0.21033552  0.33765110  0.87683622    -0.01900
C648        C  0.24350508  0.34226484  0.85510558     0.07700
C649        C  0.26283746  0.37756048  0.85942075    -0.02100
C650        C  0.24235531  0.41040758  0.87300114    -0.02100
C651        C  0.20173873  0.40802892  0.87803088     0.07900
C652        C  0.18791043  0.37067462  0.88652860    -0.02300
Br653      Br  0.14136561  0.36460929  0.91460204    -0.00800
Br654      Br  0.20442568  0.28927771  0.90295652    -0.00900
Br655      Br  0.26664045  0.46023994  0.87442622    -0.00800
Br656      Br  0.31738279  0.37891756  0.85034948    -0.00800
C657        C  0.14323087  0.68852648  0.10717537    -0.01900
C658        C  0.15961622  0.66023221  0.08332228     0.07700
C659        C  0.19531080  0.64371428  0.09658461    -0.02100
C660        C  0.21762602  0.66146825  0.12646008    -0.02100
C661        C  0.20478633  0.69659483  0.14286161     0.07900
C662        C  0.16785997  0.71147243  0.12995834    -0.02300
Br663      Br  0.15227060  0.76579893  0.13272666    -0.00800
Br664      Br  0.09075101  0.70596848  0.09698006    -0.00900
Br665      Br  0.26852055  0.64145123  0.13958432    -0.00800
Br666      Br  0.21244036  0.59501986  0.07684654    -0.00800
C667        C  0.07213785  0.50923357  0.91758916    -0.01900
C668        C  0.07013256  0.48519698  0.95024051     0.07700
C669        C  0.10110605  0.45780983  0.95458087    -0.02100
C670        C  0.13346875  0.45908868  0.92993218    -0.02100
C671        C  0.12917701  0.47509714  0.89254859     0.07900
C672        C  0.09517641  0.49813137  0.88665281    -0.02300
Br673      Br  0.07104195  0.50720915  0.83756109    -0.00800
Br674      Br  0.04740010  0.55909196  0.91316694    -0.00900
Br675      Br  0.18376596  0.44940436  0.95285582    -0.00800
Br676      Br  0.10246308  0.42025948  0.99521358    -0.00800
C677        C  0.10275759  0.54856744  0.01098963    -0.01900
C678        C  0.06166350  0.55278113  0.00656213     0.07700
C679        C  0.04794483  0.59178089  0.00235808    -0.02100
C680        C  0.07270345  0.62384784  0.00859133    -0.02100
C681        C  0.11324539  0.61860226  0.01052447     0.07900
C682        C  0.12744851  0.58060942  0.00730729    -0.02300
Br683      Br  0.17932994  0.57162472  0.99108641    -0.00800
Br684      Br  0.12879178  0.50275331  0.02866107    -0.00900
Br685      Br  0.05045778  0.67512076  0.01256040    -0.00800
Br686      Br  0.99755006  0.60286562  0.98071441    -0.00800
C687        C  0.96839234  0.57497886  0.07126551    -0.01900
C688        C  0.99980345  0.54926949  0.06413571     0.07700
C689        C  0.03203197  0.55305911  0.08920509    -0.02100
C690        C  0.03566229  0.58547647  0.11313849    -0.02100
C691        C  0.00258002  0.60530244  0.12720091     0.07900
C692        C  0.96727858  0.59682249  0.10586601    -0.02300
Br693      Br  0.91495589  0.60782598  0.12054521    -0.00800
Br694      Br  0.92664460  0.58361001  0.03468250    -0.00900
Br695      Br  0.08575476  0.60739660  0.11211027    -0.00800
Br696      Br  0.06897586  0.51192249  0.09764709    -0.00800
C697        C  0.93630162  0.49215608  0.09489405    -0.01900
C698        C  0.93432713  0.49178596  0.05393674     0.07700
C699        C  0.89674847  0.49600278  0.03672288    -0.02100
C700        C  0.86313844  0.49441043  0.05901207    -0.02100
C701        C  0.86594427  0.49597915  0.09946971     0.07900
C702        C  0.90283259  0.49920537  0.11640699    -0.02300
Br703      Br  0.90789482  0.51903544  0.16760717    -0.00800
Br704      Br  0.98269505  0.48101555  0.12412705    -0.00900
Br705      Br  0.81308693  0.49374303  0.03351954    -0.00800
Br706      Br  0.89016633  0.51286063  0.98430801    -0.00800
C707        C  0.94380681  0.39691394  0.02919245    -0.01900
C708        C  0.94257578  0.42570785  0.00020640     0.07700
C709        C  0.91110855  0.42211246  0.97319511    -0.02100
C710        C  0.87951896  0.39737000  0.98039602    -0.02100
C711        C  0.88384335  0.36493111  0.00507902     0.07900
C712        C  0.91999022  0.36358763  0.02630657    -0.02300
Br713      Br  0.94509667  0.31584024  0.04287557    -0.00800
Br714      Br  0.97999813  0.39998474  0.07185163    -0.00900
Br715      Br  0.83041284  0.41207445  0.95811215    -0.00800
Br716      Br  0.91004051  0.44543157  0.92345073    -0.00800
C717        C  0.99996766  0.44167547  0.90304248    -0.01900
C718        C  0.00593975  0.42918002  0.94151539     0.07700
C719        C  0.00990454  0.38865903  0.94768331    -0.02100
C720        C  0.00451568  0.36203635  0.91728021    -0.02100
C721        C  0.00278931  0.37445900  0.87893773     0.07900
C722        C  0.00138107  0.41506277  0.87206941    -0.02300
Br723      Br  0.00031067  0.43561059  0.82048159    -0.00800
Br724      Br  0.98284202  0.49400492  0.89212428    -0.00900
Br725      Br  0.99404089  0.30925305  0.92950616    -0.00800
Br726      Br  0.02529386  0.36735282  0.99638461    -0.00800
C727        C  0.33725457  0.80982891  0.11635374    -0.01900
C728        C  0.30007153  0.82342662  0.12745260     0.07700
C729        C  0.27653168  0.84227192  0.09949789    -0.02100
C730        C  0.28906638  0.84473033  0.06113200    -0.02100
C731        C  0.32771713  0.83470123  0.05151487     0.07900
C732        C  0.35195643  0.81873541  0.08016760    -0.02300
Br733      Br  0.40348095  0.80180911  0.06677288    -0.00800
Br734      Br  0.36622065  0.77235194  0.14658204    -0.00900
Br735      Br  0.25058573  0.85314546  0.02071705    -0.00800
Br736      Br  0.22411678  0.85694203  0.11131478    -0.00800
C737        C  0.39668649  0.86537138  0.16743572    -0.01900
C738        C  0.43111430  0.84496386  0.17826003     0.07700
C739        C  0.43526698  0.83317911  0.21714331    -0.02100
C740        C  0.40304572  0.83323832  0.24113050    -0.02100
C741        C  0.36644218  0.84501643  0.22693486     0.07900
C742        C  0.36492330  0.86637325  0.19258788    -0.02300
Br743      Br  0.32042584  0.89883164  0.18214294    -0.00800
Br744      Br  0.39224756  0.89198469  0.11906844    -0.00900
Br745      Br  0.40818370  0.81506452  0.29316502    -0.00800
Br746      Br  0.48401593  0.81308231  0.23703517    -0.00800
C747        C  0.45801321  0.17898975  0.79663052    -0.01900
C748        C  0.45416395  0.14260157  0.81442935     0.07700
C749        C  0.41850525  0.13486885  0.83171206    -0.02100
C750        C  0.38815144  0.16279076  0.82994538    -0.02100
C751        C  0.38860406  0.19211307  0.80182917     0.07900
C752        C  0.42467342  0.20053351  0.78566563    -0.02300
Br753      Br  0.42955896  0.24165932  0.74912421    -0.00800
Br754      Br  0.50751906  0.20362507  0.79519868    -0.00900
Br755      Br  0.35039629  0.16447697  0.86950107    -0.00800
Br756      Br  0.41189972  0.08745272  0.85935244    -0.00800
C757        C  0.34810778  0.06501087  0.79590236    -0.01900
C758        C  0.32858288  0.04208862  0.82243563     0.07700
C759        C  0.29553907  0.05857770  0.84014389    -0.02100
C760        C  0.28573412  0.09815560  0.83536401    -0.02100
C761        C  0.30240406  0.11945485  0.80571851     0.07900
C762        C  0.33365216  0.10167532  0.78530359    -0.02300
Br763      Br  0.35616208  0.12301646  0.73932939    -0.00800
Br764      Br  0.39080397  0.04254789  0.76771663    -0.00900
Br765      Br  0.24559014  0.12083289  0.86626769    -0.00800
Br766      Br  0.25566313  0.02700402  0.86039042    -0.00800
C767        C  0.65225890  0.17592397  0.07929125    -0.01900
C768        C  0.62512728  0.19853950  0.05830429     0.07700
C769        C  0.61008886  0.23255333  0.07593298    -0.02100
C770        C  0.62539034  0.24594365  0.11150356    -0.02100
C771        C  0.65615360  0.22559849  0.13008137     0.07900
C772        C  0.66586673  0.18810946  0.11565110    -0.02300
Br773      Br  0.70195919  0.15355522  0.14121087    -0.00800
Br774      Br  0.68066061  0.13473233  0.05429324    -0.00900
Br775      Br  0.60421650  0.29283052  0.13374773    -0.00800
Br776      Br  0.57437240  0.26582294  0.04787661    -0.00800
C777        C  0.61430898  0.09275974  0.21155391    -0.01900
C778        C  0.63695853  0.06336036  0.19380617     0.07700
C779        C  0.67660865  0.07014405  0.19077699    -0.02100
C780        C  0.69443154  0.09919111  0.21302410    -0.02100
C781        C  0.67222038  0.13066864  0.22790399     0.07900
C782        C  0.63148527  0.12740239  0.22590619    -0.02300
Br783      Br  0.59887939  0.16957790  0.24266924    -0.00800
Br784      Br  0.55940738  0.08689596  0.21482787    -0.00900
Br785      Br  0.74951450  0.09341653  0.22300987    -0.00800
Br786      Br  0.70587438  0.04463958  0.15153988    -0.00800
C787        C  0.45323461  0.98447320  0.89052458    -0.01900
C788        C  0.44211425  0.99683732  0.92792933     0.07700
C789        C  0.40199613  0.00414778  0.93222974    -0.02100
C790        C  0.37414208  0.99278780  0.90403209    -0.02100
C791        C  0.38483998  0.98087793  0.86696148     0.07900
C792        C  0.42522307  0.97822470  0.86029385    -0.02300
Br793      Br  0.44321960  0.96689874  0.80938182    -0.00800
Br794      Br  0.50650908  0.97578818  0.87856883    -0.00900
Br795      Br  0.32173414  0.98911014  0.91941272    -0.00800
Br796      Br  0.38390330  0.03585962  0.97345388    -0.00800
C797        C  0.42340295  0.86827886  0.97207020    -0.01900
C798        C  0.38520984  0.87000630  0.98594847     0.07700
C799        C  0.37411070  0.90630489  0.00214007    -0.02100
C800        C  0.40145390  0.93656687  0.00809932    -0.02100
C801        C  0.43788664  0.93621276  0.98978817     0.07900
C802        C  0.44632874  0.90193405  0.96882959    -0.02300
Br803      Br  0.48687454  0.89980291  0.93237412    -0.00800
Br804      Br  0.44920975  0.81958714  0.96531527    -0.00900
Br805      Br  0.38725771  0.97690214  0.04298564    -0.00800
Br806      Br  0.32119418  0.91868996  0.01256261    -0.00800
C807        C  0.58821184  0.06658213  0.01337563    -0.01900
C808        C  0.54774431  0.06906661  0.00969296     0.07700
C809        C  0.53285426  0.10748309  0.01071265    -0.02100
C810        C  0.55743188  0.13947968  0.00319931    -0.02100
C811        C  0.59723038  0.13338487  0.99452692     0.07900
C812        C  0.60980402  0.09395753  0.99385211    -0.02300
Br813      Br  0.65866913  0.07534301  0.97713802    -0.00800
Br814      Br  0.60609979  0.07356165  0.06566967    -0.00900
Br815      Br  0.53440364  0.19013985  0.99987646    -0.00800
Br816      Br  0.48358159  0.11708114  0.03343931    -0.00800
C817        C  0.48636966  0.09086251  0.92474268    -0.01900
C818        C  0.50825216  0.05701462  0.93434973     0.07700
C819        C  0.54366613  0.05227989  0.91484091    -0.02100
C820        C  0.55246290  0.07550583  0.88265294    -0.02100
C821        C  0.52572826  0.10344819  0.86798728     0.07900
C822        C  0.49723508  0.11537943  0.89425219    -0.02300
Br823      Br  0.48030364  0.16893650  0.89510877    -0.00800
Br824      Br  0.44114271  0.10571977  0.95175053    -0.00900
Br825      Br  0.60527820  0.07750095  0.86809648    -0.00800
Br826      Br  0.58043047  0.01268348  0.93034347    -0.00800
C827        C  0.48311386  0.91437743  0.12301452    -0.01900
C828        C  0.49498743  0.87644952  0.11251926     0.07700
C829        C  0.50562058  0.87076321  0.07385603    -0.02100
C830        C  0.51024897  0.90232837  0.04899458    -0.02100
C831        C  0.49380677  0.93896679  0.05714060     0.07900
C832        C  0.47909448  0.94400879  0.09481326    -0.02300
Br833      Br  0.45069437  0.98951799  0.10920306    -0.00800
Br834      Br  0.46981663  0.92630068  0.17538210    -0.00900
Br835      Br  0.54415272  0.89477522  0.00694532    -0.00800
Br836      Br  0.50650237  0.82024327  0.05076193    -0.00800
C837        C  0.54198604  0.01453498  0.10054777    -0.01900
C838        C  0.55160646  0.00022545  0.06400558     0.07700
C839        C  0.58977837  0.98440743  0.06056084    -0.02100
C840        C  0.61686776  0.98585589  0.09220729    -0.02100
C841        C  0.60426355  0.99569369  0.12942155     0.07900
C842        C  0.56467375  0.00508124  0.13292455    -0.02300
Br843      Br  0.53798029  0.99852352  0.18008216    -0.00800
Br844      Br  0.50965698  0.05952396  0.10633308    -0.00900
Br845      Br  0.67107014  0.97667976  0.08379257    -0.00800
Br846      Br  0.60805534  0.96696585  0.01195104    -0.00800
C847        C  0.76078506  0.91013144  0.31743932    -0.01900
C848        C  0.77787775  0.87406089  0.32581333     0.07700
C849        C  0.80803502  0.87303447  0.35347914    -0.02100
C850        C  0.83073023  0.90635430  0.35930728    -0.02100
C851        C  0.81867606  0.94178886  0.34285186     0.07900
C852        C  0.78034980  0.94432550  0.32781110    -0.02300
Br853      Br  0.75678470  0.99420333  0.31821058    -0.00800
Br854      Br  0.71007012  0.91160269  0.29395489    -0.00900
Br855      Br  0.87894756  0.90261441  0.38678993    -0.00800
Br856      Br  0.81274793  0.82974868  0.38775927    -0.00800
C857        C  0.69211640  0.86993373  0.14887872    -0.01900
C858        C  0.72352791  0.87110651  0.17499949     0.07700
C859        C  0.73391077  0.90714982  0.19018308    -0.02100
C860        C  0.70692099  0.93784279  0.19043393    -0.02100
C861        C  0.67032634  0.93388430  0.17137014     0.07900
C862        C  0.66460702  0.90073054  0.14777546    -0.02300
Br863      Br  0.61858732  0.89543051  0.11630861    -0.00800
Br864      Br  0.69079748  0.82879595  0.11170324    -0.00900
Br865      Br  0.71952596  0.98209953  0.22196150    -0.00800
Br866      Br  0.78535330  0.91324672  0.21132869    -0.00800
C867        C  0.93151984  0.68599654  0.16387469    -0.01900
C868        C  0.93875910  0.65257097  0.18731211     0.07700
C869        C  0.90986896  0.64191583  0.21280075    -0.02100
C870        C  0.88304532  0.66912242  0.22466670    -0.02100
C871        C  0.87437046  0.70260708  0.20161605     0.07900
C872        C  0.89809324  0.70968643  0.16994342    -0.02300
Br873      Br  0.88781865  0.75421700  0.13800648    -0.00800
Br874      Br  0.96457835  0.69832622  0.12170714    -0.00900
Br875      Br  0.86716492  0.66064563  0.27747611    -0.00800
Br876      Br  0.90580382  0.58967980  0.23277040    -0.00800
C877        C  0.88918204  0.83458503  0.31412289    -0.01900
C878        C  0.87147955  0.79946802  0.32628729     0.07700
C879        C  0.89182747  0.77596513  0.35304244    -0.02100
C880        C  0.93028188  0.78502807  0.36419523    -0.02100
C881        C  0.94836497  0.81932016  0.35078185     0.07900
C882        C  0.92642339  0.84485941  0.32744010    -0.02300
Br883      Br  0.94836346  0.89253137  0.30928017    -0.00800
Br884      Br  0.86549040  0.86860402  0.27576486    -0.00900
Br885      Br  0.95915939  0.74678694  0.39403286    -0.00800
Br886      Br  0.86943008  0.72833514  0.37074342    -0.00800
C887        C  0.73273002  0.62141251  0.35003182    -0.01900
C888        C  0.71587771  0.63545647  0.31536747     0.07700
C889        C  0.68427580  0.61426464  0.29878967    -0.02100
C890        C  0.66908492  0.58184024  0.31758644    -0.02100
C891        C  0.68852222  0.56537458  0.34946279     0.07900
C892        C  0.71940767  0.58668400  0.36661316    -0.02300
Br893      Br  0.74653678  0.56678193  0.41134759    -0.00800
Br894      Br  0.77912455  0.64473794  0.37129433    -0.00900
Br895      Br  0.62367028  0.55750031  0.29645008    -0.00800
Br896      Br  0.66445319  0.62334656  0.24700196    -0.00800
C897        C  0.79954214  0.59961354  0.20307170    -0.01900
C898        C  0.79560881  0.63555693  0.18306549     0.07700
C899        C  0.80278336  0.63554787  0.14314660    -0.02100
C900        C  0.81054851  0.60027513  0.12343777    -0.02100
C901        C  0.81327762  0.56478121  0.14338286     0.07900
C902        C  0.80918693  0.56508857  0.18353348    -0.02300
Br903      Br  0.81156612  0.51656870  0.21155984    -0.00800
Br904      Br  0.78741105  0.59446432  0.25676446    -0.00900
Br905      Br  0.81531507  0.59987966  0.06847655    -0.00800
Br906      Br  0.80205619  0.68348393  0.11488614    -0.00800
C907        C  0.62133785  0.77147645  0.14519052    -0.01900
C908        C  0.63621641  0.79176950  0.17732885     0.07700
C909        C  0.61508784  0.82468432  0.19080299    -0.02100
C910        C  0.57865172  0.83474460  0.17460664    -0.02100
C911        C  0.56217775  0.81268516  0.14437586     0.07900
C912        C  0.58519690  0.78229375  0.12842107    -0.02300
Br913      Br  0.56699339  0.75267559  0.08468789    -0.00800
Br914      Br  0.64832561  0.72629733  0.12582025    -0.00900
Br915      Br  0.55162211  0.87844360  0.19603581    -0.00800
Br916      Br  0.63418154  0.85665637  0.23298731    -0.00800
C917        C  0.58942333  0.66255397  0.31622341    -0.01900
C918        C  0.58480431  0.66908230  0.35538074     0.07700
C919        C  0.61707032  0.68375596  0.37585183    -0.02100
C920        C  0.64679742  0.70261942  0.35623866    -0.02100
C921        C  0.64325318  0.70744697  0.31590719     0.07900
C922        C  0.61272906  0.68790416  0.29608962    -0.02300
Br923      Br  0.59650363  0.70014906  0.24379460    -0.00800
Br924      Br  0.55483332  0.62843743  0.28950117    -0.00900
Br925      Br  0.69080138  0.72163834  0.38528604    -0.00800
Br926      Br  0.62233619  0.67366970  0.42975091    -0.00800
C927        C  0.89916199  0.27506243  0.79992158    -0.01900
C928        C  0.86519516  0.29825802  0.79771878     0.07700
C929        C  0.86730045  0.33836114  0.80636220    -0.02100
C930        C  0.90328564  0.35518740  0.81535850    -0.02100
C931        C  0.93691179  0.33182474  0.81837967     0.07900
C932        C  0.93422013  0.29148307  0.81139650    -0.02300
Br933      Br  0.97917245  0.25790203  0.81337484    -0.00800
Br934      Br  0.90048862  0.22108339  0.78378618    -0.00900
Br935      Br  0.90615531  0.41047254  0.82142476    -0.00800
Br936      Br  0.82134562  0.37088768  0.80665325    -0.00800
C937        C  0.87225627  0.13704144  0.72499783    -0.01900
C938        C  0.85748732  0.17174323  0.70860228     0.07700
C939        C  0.88036555  0.18980598  0.68006177    -0.02100
C940        C  0.91653493  0.17421765  0.66953187    -0.02100
C941        C  0.93421629  0.14400006  0.69074202     0.07900
C942        C  0.91066651  0.12428956  0.71745040    -0.02300
Br943      Br  0.93092652  0.08066204  0.74622919    -0.00800
Br944      Br  0.84225759  0.10919513  0.76172849    -0.00900
Br945      Br  0.94268397  0.19780934  0.62783572    -0.00800
Br946      Br  0.86725696  0.23993533  0.65806983    -0.00800
C947        C  0.70706485  0.14463302  0.87897632    -0.01900
C948        C  0.68489418  0.16471257  0.85097083     0.07700
C949        C  0.64560297  0.17375550  0.85902950    -0.02100
C950        C  0.63053211  0.16588729  0.89520671    -0.02100
C951        C  0.65537540  0.15458450  0.92540403     0.07900
C952        C  0.69378536  0.14299866  0.91692484    -0.02300
Br953      Br  0.73164084  0.13562111  0.95799797    -0.00800
Br954      Br  0.75869831  0.12701744  0.86776691    -0.00900
Br955      Br  0.57847283  0.18161181  0.90665994    -0.00800
Br956      Br  0.61346513  0.20485509  0.82514066    -0.00800
C957        C  0.78634563  0.33175536  0.93231439    -0.01900
C958        C  0.82700465  0.32321456  0.93472792     0.07700
C959        C  0.84352100  0.30907593  0.90122078    -0.02100
C960        C  0.81999996  0.28844154  0.87548103    -0.02100
C961        C  0.78087264  0.30062085  0.86841955     0.07900
C962        C  0.76470984  0.32449759  0.89728654    -0.02300
Br963      Br  0.71137943  0.34035249  0.89222254    -0.00800
Br964      Br  0.75897469  0.35008292  0.97635178    -0.00900
Br965      Br  0.83679174  0.23485792  0.87099675    -0.00800
Br966      Br  0.89880914  0.30377012  0.89893202    -0.00800
C967        C  0.64597843  0.11827267  0.76369588    -0.01900
C968        C  0.63892221  0.15502811  0.74691168     0.07700
C969        C  0.60012977  0.16465533  0.73705026    -0.02100
C970        C  0.56942786  0.14214267  0.75033597    -0.02100
C971        C  0.57673535  0.11245181  0.77773201     0.07900
C972        C  0.61449932  0.09602383  0.77684376    -0.02300
Br973      Br  0.62107223  0.04073258  0.78276999    -0.00800
Br974      Br  0.69774185  0.09761923  0.76754884    -0.00900
Br975      Br  0.52087943  0.14501350  0.72161890    -0.00800
Br976      Br  0.58847290  0.20750631  0.70342313    -0.00800
C977        C  0.61946910  0.29188771  0.64837693    -0.01900
C978        C  0.62340900  0.29826893  0.68880565     0.07700
C979        C  0.59079841  0.31148094  0.70882629    -0.02100
C980        C  0.55489886  0.31640158  0.68917741    -0.02100
C981        C  0.55215485  0.31320077  0.64861606     0.07900
C982        C  0.58447271  0.29996578  0.62878714    -0.02300
Br983      Br  0.57873409  0.28706391  0.57496374    -0.00800
Br984      Br  0.65962520  0.26807306  0.61832198    -0.00900
Br985      Br  0.50841796  0.32114799  0.71859673    -0.00800
Br986      Br  0.59356291  0.31727404  0.76389194    -0.00800
C987        C  0.67164283  0.37164925  0.61525891    -0.01900
C988        C  0.69662591  0.36948610  0.58417251     0.07700
C989        C  0.73697407  0.37031601  0.59278537    -0.02100
C990        C  0.75069487  0.35973276  0.62972000    -0.02100
C991        C  0.72416870  0.34991176  0.65773766     0.07900
C992        C  0.68601874  0.36361268  0.65265081    -0.02300
Br993      Br  0.65899435  0.38187173  0.69675344    -0.00800
Br994      Br  0.61833730  0.38311597  0.60615679    -0.00900
Br995      Br  0.80510177  0.35749399  0.64241455    -0.00800
Br996      Br  0.77310825  0.37669298  0.55206178    -0.00800
C997        C  0.82727878  0.19807888  0.56469580    -0.01900
C998        C  0.82105595  0.15867414  0.55677840     0.07700
C999        C  0.79939691  0.13720817  0.58310946    -0.02100
C1000       C  0.77946155  0.15617532  0.61259844    -0.02100
C1001       C  0.77862179  0.19703152  0.61422889     0.07900
C1002       C  0.80295333  0.21789094  0.59006727    -0.02300
Br1003     Br  0.80069026  0.27342814  0.58848470    -0.00800
Br1004     Br  0.86962271  0.22461429  0.54196020    -0.00900
Br1005     Br  0.75399632  0.12582933  0.65096044    -0.00800
Br1006     Br  0.79634272  0.08183413  0.57900840    -0.00800
C1007       C  0.30089080  0.80995560  0.87203819    -0.01900
C1008       C  0.31415122  0.77657081  0.85151667     0.07700
C1009       C  0.35180162  0.76231116  0.86049417    -0.02100
C1010       C  0.37309931  0.77787304  0.89207955    -0.02100
C1011       C  0.35841137  0.80967613  0.91378878     0.07900
C1012       C  0.32532069  0.82872403  0.89904886    -0.02300
Br1013     Br  0.30877505  0.87615903  0.92292601    -0.00800
Br1014     Br  0.24755469  0.82789980  0.86967576    -0.00900
Br1015     Br  0.41775255  0.74906700  0.91053906    -0.00800
Br1016     Br  0.37192184  0.71660376  0.83505423    -0.00800
C1017       C  0.20677150  0.68314264  0.90110994    -0.01900
C1018       C  0.18147771  0.68938697  0.86885975     0.07700
C1019       C  0.14162501  0.68232813  0.87295934    -0.02100
C1020       C  0.12703874  0.67437811  0.90965151    -0.02100
C1021       C  0.15253120  0.66744625  0.94119435     0.07900
C1022       C  0.19271006  0.66775583  0.93510112    -0.02300
Br1023     Br  0.22911748  0.65520173  0.97649694    -0.00800
Br1024     Br  0.26016001  0.70027251  0.90269325    -0.00900
Br1025     Br  0.07225782  0.67704492  0.91696947    -0.00800
Br1026     Br  0.10662448  0.68402800  0.82910914    -0.00800
C1027       C  0.13361606  0.86568328  0.73483791    -0.01900
C1028       C  0.15779703  0.84419651  0.71051844     0.07700
C1029       C  0.16995177  0.86151004  0.67562828    -0.02100
C1030       C  0.16161199  0.90039248  0.66765383    -0.02100
C1031       C  0.14114064  0.92301170  0.69387723     0.07900
C1032       C  0.12655717  0.90533203  0.72734933    -0.02300
Br1033     Br  0.10517022  0.93700011  0.76780515    -0.00800
Br1034     Br  0.11486246  0.84289037  0.78130269    -0.00900
Br1035     Br  0.18782907  0.92480420  0.62579117    -0.00800
Br1036     Br  0.20374720  0.83537309  0.63981143    -0.00800
C1037       C  0.34415534  0.84001144  0.78501598    -0.01900
C1038       C  0.30359102  0.84299047  0.77909078     0.07700
C1039       C  0.28386453  0.87442105  0.79634860    -0.02100
C1040       C  0.30293460  0.89799967  0.82313240    -0.02100
C1041       C  0.34351532  0.90097188  0.82242917     0.07900
C1042       C  0.36395065  0.86932400  0.80622842    -0.02300
Br1043     Br  0.41913858  0.86718881  0.81275342    -0.00800
Br1044     Br  0.37306489  0.79800888  0.76253765    -0.00900
Br1045     Br  0.27242399  0.93338095  0.85230052    -0.00800
Br1046     Br  0.23147974  0.88920924  0.78056804    -0.00800
C1047       C  0.27710805  0.68414119  0.58595528    -0.01900
C1048       C  0.29408378  0.69594712  0.62133133     0.07700
C1049       C  0.33518670  0.69605952  0.62444552    -0.02100
C1050       C  0.35767046  0.68717133  0.59220411    -0.02100
C1051       C  0.34014429  0.67496096  0.55733004     0.07900
C1052       C  0.29989503  0.66958154  0.55617939    -0.02300
Br1053     Br  0.27496688  0.64265887  0.51397642    -0.00800
Br1054     Br  0.22393682  0.69505404  0.57383565    -0.00900
Br1055     Br  0.41288323  0.69290884  0.59579792    -0.00800
Br1056     Br  0.36235038  0.71005822  0.67159549    -0.00800
C1057       C  0.11695212  0.78780147  0.64287828    -0.01900
C1058       C  0.13593086  0.75170167  0.64181660     0.07700
C1059       C  0.13520957  0.73234742  0.60644768    -0.02100
C1060       C  0.13076602  0.75406103  0.57230282    -0.02100
C1061       C  0.12741712  0.79508710  0.57442607     0.07900
C1062       C  0.11460302  0.81074324  0.60933013    -0.02300
Br1063     Br  0.09437174  0.86246183  0.61127847    -0.00800
Br1064     Br  0.08342760  0.79762514  0.68490591    -0.00900
Br1065     Br  0.13447371  0.72896143  0.52312522    -0.00800
Br1066     Br  0.13569801  0.67661242  0.60649660    -0.00800
C1067       C  0.29344354  0.60975371  0.65305036    -0.01900
C1068       C  0.30877611  0.62385353  0.68876293     0.07700
C1069       C  0.34613321  0.61142078  0.70060097    -0.02100
C1070       C  0.36528776  0.58250355  0.67926349    -0.02100
C1071       C  0.34694857  0.56514380  0.64708021     0.07900
C1072       C  0.31663248  0.58660081  0.62954456    -0.02300
Br1073     Br  0.29624183  0.56967041  0.58033332    -0.00800
Br1074     Br  0.23881269  0.61201980  0.63870092    -0.00900
Br1075     Br  0.41800590  0.57089057  0.69157594    -0.00800
Br1076     Br  0.36878964  0.62823610  0.74896311    -0.00800
C1077       C  0.15166597  0.58377305  0.77324678    -0.01900
C1078       C  0.18077412  0.60470037  0.79301873     0.07700
C1079       C  0.19559066  0.58993639  0.82855861    -0.02100
C1080       C  0.17989683  0.55653553  0.84481691    -0.02100
C1081       C  0.15559757  0.53262695  0.82253005     0.07900
C1082       C  0.14083973  0.54703627  0.78669162    -0.02300
Br1083     Br  0.11043112  0.51435882  0.75228649    -0.00800
Br1084     Br  0.13196033  0.60107641  0.72366688    -0.00900
Br1085     Br  0.19701523  0.54094323  0.89547915    -0.00800
Br1086     Br  0.24241249  0.60923427  0.85266485    -0.00800
loop_ 
_geom_bond_atom_site_label_1 
_geom_bond_atom_site_label_2 
_geom_bond_distance 
_geom_bond_site_symmetry_2 
_ccdc_geom_bond_type 
O1            C9   1.277       .  A
O1          Co21   1.994       .  S
O2           C10   1.276       .  A
O2          Co22   2.003       .  S
O3           C11   1.280       .  A
O3          Co23   2.070       .  S
O4           C12   1.266       .  A
O4          Co24   2.018       .  S
O5           C11   1.254       .  A
O5          Co22   1.938       .  S
O6           C12   1.276       .  A
O6          Co21   2.006       .  S
O7           C10   1.271       .  A
O7          Co24   1.991       .  S
O8            C9   1.262       .  A
O8          Co23   1.993       .  S
C9         C1068   1.487       .  S
C10        C1038   1.495       .  S
C11        C1048   1.508       .  S
C12        C1008   1.513       .  S
O13          C26   1.273       .  A
O13         Co21   2.002       .  S
O14          C27   1.285       .  A
O14         Co22   2.078       .  S
O15          C28   1.273       .  A
O15         Co23   1.995       .  S
O16          C29   1.279       .  A
O16         Co24   2.028       .  S
O17          C29   1.247       .  A
O17         Co22   1.942       .  S
O18          C28   1.266       .  A
O18         Co21   2.008       .  S
O19          C26   1.277       .  A
O19         Co24   1.983       .  S
O20          C27   1.262       .  A
O20         Co23   1.977       .  S
Co21         O25   2.089       .  S
Co22         O25   2.089       .  S
Co23         O25   2.098       .  S
Co24         O25   2.097       .  S
C26        C1018   1.494       .  S
C27        C1058   1.501       .  S
C28        C1078   1.492       .  S
C29        C1028   1.487       .  S
O30          C38   1.280       .  A
O30         Co50   1.877       .  S
O31          C39   1.282       .  A
O31         Co51   2.023       .  S
O32          C40   1.260       .  A
O32         Co52   1.983       .  S
O33          C41   1.287       .  A
O33         Co53   2.042       .  S
O34          C40   1.284       .  A
O34         Co51   2.040       .  S
O35          C41   1.287       .  A
O35         Co50   2.013       .  S
O36          C39   1.261       .  A
O36         Co53   1.974       .  S
O37          C38   1.306       .  A
O37         Co52   2.128       .  S
C38        C1001   1.479       .  S
C39         C948   1.491       .  S
C40         C938   1.522       .  S
C41         C968   1.507       .  S
O42          C55   1.263       .  A
O42         Co50   1.956       .  S
O43          C56   1.268       .  A
O43         Co51   2.005       .  S
O44          C57   1.233       .  A
O44         Co52   1.967       .  S
O45          C58   1.310       .  A
O45         Co53   2.076       .  S
O46          C58   1.271       .  A
O46         Co51   1.998       .  S
O47          C57   1.262       .  A
O47         Co50   2.100       .  S
O48          C55   1.297       .  A
O48         Co53   2.042       .  S
O49          C56   1.252       .  A
O49         Co52   1.941       .  S
Co50         O54   1.954       .  S
Co51         O54   2.055       .  S
Co52         O54   2.075       .  S
Co53         O54   2.039       .  S
C55         C978   1.495       .  S
C56         C928   1.478       .  S
C57         C991   1.492       .  S
C58         C961   1.528       .  S
O59          C67   1.280       .  A
O59         Co79   2.019       .  S
O60          C68   1.286       .  A
O60         Co80   2.064       .  S
O61          C69   1.282       .  A
O61         Co81   2.045       .  S
O62          C70   1.278       .  A
O62         Co82   2.043       .  S
O63          C69   1.270       .  A
O63         Co80   1.985       .  S
O64          C70   1.278       .  A
O64         Co79   1.991       .  S
O65          C68   1.239       .  A
O65         Co82   1.956       .  S
O66          C67   1.257       .  A
O66         Co81   1.982       .  S
C67         C908   1.502       .  S
C68         C871   1.500       .  S
C69         C858   1.490       .  S
C70         C898   1.514       .  S
O71          C84   1.265       .  A
O71         Co79   2.007       .  S
O72          C85   1.283       .  A
O72         Co80   2.066       .  S
O73          C86   1.271       .  A
O73         Co81   1.982       .  S
O74          C87   1.295       .  A
O74         Co82   2.032       .  S
O75          C87   1.263       .  A
O75         Co80   1.974       .  S
O76          C86   1.268       .  A
O76         Co79   1.998       .  S
O77          C84   1.280       .  A
O77         Co82   2.013       .  S
O78          C85   1.258       .  A
O78         Co81   1.967       .  S
Co79         O83   2.100       .  S
Co80         O83   2.104       .  S
Co81         O83   2.090       .  S
Co82         O83   2.085       .  S
C84         C888   1.513       .  S
C85         C848   1.489       .  S
C86         C921   1.490       .  S
C87         C878   1.504       .  S
C88         C838   1.534       .  S
C88          C89   1.450   1_545  A
C88          C93   1.447       .  A
C89         C831   1.539       .  S
C89          C90   1.461   1_554  A
C90         C801   1.556       .  S
C90          C91   1.466       .  A
C91         C788   1.557       .  S
C91          C92   1.468   1_565  A
C92         C818   1.541       .  S
C92          C93   1.459   1_556  A
C93         C808   1.546       .  S
N94          C98   1.379   1_565  A
N94          C95   1.371       .  A
N94         C841   1.466       .  S
C95         C861   1.505       .  S
C95          C96   1.385       .  A
C96          C97   1.367   1_565  A
C96          H99   1.081       .  S
C97          C98   1.381       .  A
C97         H100   1.083       .  S
C98         C778   1.507       .  S
N101        C105   1.374       .  A
N101        C102   1.382   1_556  A
N101        C811   1.475       .  S
C102        C768   1.490       .  S
C102        C103   1.381       .  A
C103        C104   1.352   1_554  A
C103        H106   1.083       .  S
C104        C105   1.378       .  A
C104        H107   1.083       .  S
C105        C951   1.476       .  S
N108        C112   1.381       .  A
N108        C109   1.382       .  A
N108        C791   1.480       .  S
C109        C758   1.491   1_565  S
C109        C110   1.380       .  A
C110        C111   1.354       .  A
C110        H113   1.083   1_565  S
C111        C112   1.388       .  A
C111        H114   1.084       .  S
C112       C1041   1.495       .  S
N115        C119   1.393       .  A
N115        C116   1.374       .  A
N115        C821   1.491       .  S
C116        C748   1.508       .  S
C116        C117   1.375       .  A
C117        C118   1.366       .  A
C117        H120   1.077       .  S
C118        C119   1.383       .  A
C118        H121   1.083       .  S
C119        C971   1.527       .  S
N122        C126   1.377       .  A
N122        C123   1.382       .  A
N122        C828   1.469       .  S
C123        C911   1.510       .  S
C123        C124   1.376       .  A
C124        C125   1.355       .  A
C124        H127   1.082       .  S
C125        C126   1.387       .  A
C125        H128   1.078       .  S
C126        C738   1.512       .  S
N129        C133   1.391       .  A
N129        C130   1.384   1_556  A
N129        C798   1.490       .  S
C130        C731   1.485       .  S
C130        C131   1.376       .  A
C131        C132   1.347   1_554  A
C131        H134   1.083       .  S
C132        C133   1.383       .  A
C132        H135   1.083       .  S
C133       C1011   1.500       .  S
C136        C678   1.558       .  S
C136        C137   1.454   1_554  A
C136        C141   1.460       .  A
C137        C668   1.544       .  S
C137        C138   1.462       .  A
C138        C718   1.526       .  S
C138        C139   1.455   1_456  A
C139        C708   1.561       .  S
C139        C140   1.452       .  A
C140        C698   1.539       .  S
C140        C141   1.459   1_655  A
C141        C688   1.535   1_455  S
N142        C146   1.378       .  A
N142        C143   1.371   1_554  A
N142        C681   1.460       .  S
C143       C1021   1.485       .  S
C143        C144   1.382       .  A
C144        C145   1.355   1_556  A
C144        H147   1.083       .  S
C145        C146   1.386       .  A
C145        H148   1.083       .  S
C146        C658   1.503       .  S
N149        C153   1.388       .  A
N149        C150   1.385       .  A
N149        C671   1.486       .  S
C150       C1081   1.497       .  S
C150        C151   1.374       .  A
C151        C152   1.341       .  A
C151        H154   1.083       .  S
C152        C153   1.383       .  A
C152        H155   1.081       .  S
C153        C651   1.504       .  S
N156        C160   1.390       .  A
N156        C157   1.373   1_455  A
N156        C691   1.496       .  S
C157        C868   1.513       .  S
C157        C158   1.390       .  A
C158        C159   1.342   1_655  A
C158        H161   1.081       .  S
C159        C160   1.373       .  A
C159        H162   1.084       .  S
C160        C638   1.508       .  S
N163        C167   1.374       .  A
N163        C164   1.372       .  A
N163        C701   1.456       .  S
C164        C628   1.509       .  S
C164        C165   1.385       .  A
C165        C166   1.361       .  A
C165        H168   1.083       .  S
C166        C167   1.381       .  A
C166        H169   1.083       .  S
C167        C901   1.494       .  S
N170        C174   1.368       .  A
N170        C171   1.372   1_455  A
N170        C721   1.461       .  S
C171        C931   1.477       .  S
C171        C172   1.381       .  A
C172        C173   1.352   1_655  A
C172        H175   1.083       .  S
C173        C174   1.379       .  A
C173        H176   1.090       .  S
C174        C618   1.493       .  S
N177        C181   1.378   1_554  A
N177        C178   1.386       .  A
N177        C711   1.495       .  S
C178        C608   1.510       .  S
C178        C179   1.384       .  A
C179        C180   1.350   1_554  A
C179        H182   1.084       .  S
C180        C181   1.386       .  A
C180        H183   1.082       .  S
C181        C958   1.523       .  S
C184        C588   1.545       .  S
C184        C185   1.463       .  A
C184        C189   1.462       .  A
C185        C598   1.545       .  S
C185        C186   1.454       .  A
C186        C558   1.547       .  S
C186        C187   1.449       .  A
C187        C548   1.519       .  S
C187        C188   1.445       .  A
C188        C568   1.544       .  S
C188        C189   1.452       .  A
C189        C578   1.542       .  S
N190        C194   1.381       .  A
N190        C191   1.376       .  A
N190        C601   1.484       .  S
C191        C981   1.479       .  S
C191        C192   1.375       .  A
C192        C193   1.348       .  A
C192        H195   1.083       .  S
C193        C194   1.386       .  A
C193        H196   1.083       .  S
C194        C538   1.493       .  S
N197        C201   1.368       .  A
N197        C198   1.369       .  A
N197        C551   1.465       .  S
C198        C528   1.506       .  S
C198        C199   1.387       .  A
C199        C200   1.364       .  A
C199        H202   1.080       .  S
C200        C201   1.378       .  A
C200        H203   1.083       .  S
C201       C1051   1.491       .  S
N204        C208   1.375       .  A
N204        C205   1.383       .  A
N204        C581   1.465       .  S
C205        C891   1.508       .  S
C205        C206   1.377       .  A
C206        C207   1.356       .  A
C206        H209   1.083       .  S
C207        C208   1.386       .  A
C207        H210   1.081       .  S
C208        C521   1.507       .  S
N211        C215   1.367       .  A
N211        C212   1.376       .  A
N211        C571   1.464       .  S
C212        C508   1.489       .  S
C212        C213   1.379       .  A
C213        C214   1.360       .  A
C213        H216   1.083       .  S
C214        C215   1.386       .  A
C214        H217   1.083       .  S
C215        C918   1.484       .  S
N218        C222   1.367       .  A
N218        C219   1.375       .  A
N218        C561   1.455       .  S
C219       C1071   1.497       .  S
C219        C220   1.386       .  A
C220        C221   1.344       .  A
C220        H223   1.082       .  S
C221        C222   1.382       .  A
C221        H224   1.084       .  S
C222        C498   1.467       .  S
N225        C229   1.385       .  A
N225        C226   1.383       .  A
N225        C591   1.484       .  S
C226        C988   1.492       .  S
C226        C227   1.380       .  A
C227        C228   1.343       .  A
C227        H230   1.081       .  S
C228        C229   1.376       .  A
C228        H231   1.083       .  S
C229        C488   1.488       .  S
C232        C471   1.564   1_545  S
C232        C233   1.468   1_545  A
C232        C237   1.473       .  A
C233        C478   1.558       .  S
C233        C234   1.465       .  A
C234        C431   1.547       .  S
C234        C235   1.463   1_465  A
C235        C441   1.555       .  S
C235        C236   1.462       .  A
C236        C448   1.552       .  S
C236        C237   1.467   1_655  A
C237        C461   1.551       .  S
N238        C242   1.386   1_455  A
N238        C239   1.380       .  A
N238        C458   1.467       .  S
C239        C418   1.520       .  S
C239        C240   1.387       .  A
C240        C241   1.363   1_455  A
C240        H243   1.082       .  S
C241        C242   1.379       .  A
C241        H244   1.082       .  S
C242        C941   1.524       .  S
N245        C249   1.381       .  A
N245        C246   1.375   1_565  A
N245        C468   1.487       .  S
C246        C411   1.464       .  S
C246        C247   1.379       .  A
C247        C248   1.345   1_545  A
C247        H250   1.083       .  S
C248        C249   1.379       .  A
C248        H251   1.081       .  S
C249       C1031   1.474       .  S
N252        C256   1.384       .  A
N252        C253   1.378       .  A
N252        C481   1.473       .  S
C253       C1061   1.498       .  S
C253        C254   1.383       .  A
C254        C255   1.353       .  A
C254        H257   1.083       .  S
C255        C256   1.377       .  A
C255        H258   1.082       .  S
C256        C398   1.502       .  S
N259        C263   1.370       .  A
N259        C260   1.372       .  A
N259        C451   1.463       .  S
C260        C391   1.505       .  S
C260        C261   1.389       .  A
C261        C262   1.359       .  A
C261        H264   1.078       .  S
C262        C263   1.376       .  A
C262        H265   1.083       .  S
C263        C998   1.487       .  S
N266        C270   1.372   1_545  A
N266        C267   1.383       .  A
N266        C438   1.472       .  S
C267        C378   1.509       .  S
C267        C268   1.381       .  A
C268        C269   1.354   1_545  A
C268        H271   1.082       .  S
C269        C270   1.382       .  A
C269        H272   1.081       .  S
C270        C851   1.493       .  S
N273        C277   1.384   1_455  A
N273        C274   1.377       .  A
N273        C428   1.475       .  S
C274        C371   1.494       .  S
C274        C275   1.382       .  A
C275        C276   1.351       .  A
C275        H278   1.080       .  S
C276        C277   1.376   1_455  A
C276        H279   1.082   1_455  S
C277        C881   1.502       .  S
O280        C288   1.280       .  A
O280       Co300   2.011       .  S
O281        C289   1.252       .  A
O281       Co301   1.942       .  S
O282        C290   1.288       .  A
O282       Co302   2.069       .  S
O283        C291   1.271       .  A
O283       Co303   2.021       .  S
O284        C290   1.278       .  A
O284       Co301   2.007       .  S
O285        C291   1.272       .  A
O285       Co300   1.974       .  S
O286        C289   1.271       .  A
O286       Co303   2.033       .  S
O287        C288   1.255       .  A
O287       Co302   1.959       .  S
C288        C408   1.476       .  S
C289        C501   1.483       .  S
C290        C421   1.509       .  S
C291        C541   1.499       .  S
O292        C305   1.274       .  A
O292       Co300   2.048       .  S
O293        C306   1.240       .  A
O293       Co301   1.942       .  S
O294        C307   1.296       .  A
O294       Co302   2.034       .  S
O295        C308   1.264       .  A
O295       Co303   1.972       .  S
O296        C308   1.289       .  A
O296       Co301   2.089       .  S
O297        C307   1.261       .  A
O297       Co300   1.967       .  S
O298        C305   1.266       .  A
O298       Co303   1.997       .  S
O299        C306   1.281       .  A
O299       Co302   2.038       .  S
Co300       O304   2.084       .  S
Co301       O304   2.084       .  S
Co302       O304   2.096       .  S
Co303       O304   2.109       .  S
C305        C751   1.506       .  S
C306        C621   1.491       .  S
C307        C761   1.503       .  S
C308        C648   1.499       .  S
O309        C317   1.260       .  A
O309       Co329   1.974       .  S
O310        C318   1.265       .  A
O310       Co330   1.993       .  S
O311        C319   1.280       .  A
O311       Co331   1.920       .  S
O312        C320   1.281       .  A
O312       Co332   2.007       .  S
O313        C319   1.291       .  A
O313       Co330   2.124       .  S
O314        C320   1.284       .  A
O314       Co329   2.031       .  S
O315        C318   1.280       .  A
O315       Co332   2.019       .  S
O316        C317   1.283       .  A
O316       Co331   2.025       .  S
C317        C381   1.505       .  S
C318        C631   1.501       .  S
C319        C611   1.489       .  S
C320        C388   1.493       .  S
O321        C334   1.276       .  A
O321       Co329   1.997       .  S
O322        C335   1.272       .  A
O322       Co330   1.902       .  S
O323        C336   1.274       .  A
O323       Co331   1.985       .  S
O324        C337   1.280       .  A
O324       Co332   2.021       .  S
O325        C337   1.281       .  A
O325       Co330   2.008       .  S
O326        C336   1.289       .  A
O326       Co329   2.030       .  S
O327        C334   1.268       .  A
O327       Co332   1.986       .  S
O328        C335   1.292       .  A
O328       Co331   2.132       .  S
Co329       O333   2.014       .  S
Co330       O333   1.960       .  S
Co331       O333   1.961       .  S
Co332       O333   2.013       .  S
C334        C491   1.496       .  S
C335        C771   1.511       .  S
C336        C781   1.513       .  S
C337        C518   1.494       .  S
O338        C346   1.280       .  A
O338       Co358   2.020       .  S
O339        C347   1.242       .  A
O339       Co359   1.922       .  S
O340        C348   1.284       .  A
O340       Co360   2.052       .  S
O341        C349   1.259       .  A
O341       Co361   1.983       .  S
O342        C348   1.266       .  A
O342       Co359   1.979       .  S
O343        C349   1.296       .  A
O343       Co358   2.044       .  S
O344        C347   1.278       .  A
O344       Co361   2.071       .  S
O345        C346   1.256       .  A
O345       Co360   1.976       .  S
C346        C511   1.496       .  S
C347        C641   1.502       .  S
C348        C531   1.485       .  S
C349        C661   1.509       .  S
O350        C363   1.256       .  A
O350       Co358   1.972       .  S
O351        C364   1.248       .  A
O351       Co359   1.962       .  S
O352        C365   1.284       .  A
O352       Co360   2.006       .  S
O353        C366   1.265       .  A
O353       Co361   1.971       .  S
O354        C366   1.288       .  A
O354       Co359   2.074       .  S
O355        C365   1.287       .  A
O355       Co358   2.043       .  S
O356        C363   1.281       .  A
O356       Co361   2.025       .  S
O357        C364   1.277       .  A
O357       Co360   2.024       .  S
Co358       O362   2.087       .  S
Co359       O362   2.082       .  S
Co360       O362   2.101       .  S
Co361       O362   2.110       .  S
C363        C728   1.501       .  S
C364        C401   1.501       .  S
C365        C741   1.496       .  S
C366        C368   1.491       .  S
C367        C368   1.398       .  A
C367        C372   1.409       .  A
C367       Br374   1.925       .  S
C368        C369   1.402       .  A
C369        C370   1.412       .  A
C369       Br376   1.917       .  S
C370        C371   1.410       .  A
C370       Br375   1.916       .  S
C371        C372   1.421       .  A
C372       Br373   1.924       .  S
C377        C378   1.408       .  A
C377        C382   1.410       .  A
C377       Br384   1.920       .  S
C378        C379   1.425       .  A
C379        C380   1.415       .  A
C379       Br386   1.928       .  S
C380        C381   1.410       .  A
C380       Br385   1.932       .  S
C381        C382   1.429       .  A
C382       Br383   1.939       .  S
C387        C388   1.402       .  A
C387        C392   1.405       .  A
C387       Br394   1.923       .  S
C388        C389   1.406       .  A
C389        C390   1.420       .  A
C389       Br396   1.918       .  S
C390        C391   1.417       .  A
C390       Br395   1.923       .  S
C391        C392   1.424       .  A
C392       Br393   1.929       .  S
C397        C398   1.428       .  A
C397        C402   1.416       .  A
C397       Br404   1.929       .  S
C398        C399   1.408       .  A
C399        C400   1.409       .  A
C399       Br406   1.926       .  S
C400        C401   1.426       .  A
C400       Br405   1.937       .  S
C401        C402   1.408       .  A
C402       Br403   1.933       .  S
C407        C408   1.407       .  A
C407        C412   1.405       .  A
C407       Br414   1.933       .  S
C408        C409   1.427       .  A
C409        C410   1.398       .  A
C409       Br416   1.937       .  S
C410        C411   1.399       .  A
C410       Br415   1.939       .  S
C411        C412   1.421       .  A
C412       Br413   1.938       .  S
C417        C418   1.421       .  A
C417        C422   1.412       .  A
C417       Br424   1.931       .  S
C418        C419   1.421       .  A
C419        C420   1.426       .  A
C419       Br426   1.920       .  S
C420        C421   1.409       .  A
C420       Br425   1.922       .  S
C421        C422   1.401       .  A
C422       Br423   1.910       .  S
C427        C428   1.421       .  A
C427        C432   1.424       .  A
C427       Br434   1.926       .  S
C428        C429   1.411   1_455  A
C429        C430   1.403       .  A
C429       Br436   1.915       .  S
C430        C431   1.418   1_655  A
C430       Br435   1.904       .  S
C431        C432   1.427       .  A
C432       Br433   1.916       .  S
C437        C438   1.411       .  A
C437        C442   1.410       .  A
C437       Br444   1.931       .  S
C438        C439   1.418   1_545  A
C439        C440   1.432       .  A
C439       Br446   1.934       .  S
C440        C441   1.433   1_565  A
C440       Br445   1.922       .  S
C441        C442   1.421       .  A
C442       Br443   1.903       .  S
C447        C448   1.440       .  A
C447        C452   1.429       .  A
C447       Br454   1.911       .  S
C448        C449   1.417       .  A
C449        C450   1.394       .  A
C449       Br456   1.901       .  S
C450        C451   1.405       .  A
C450       Br455   1.922       .  S
C451        C452   1.408       .  A
C452       Br453   1.924       .  S
C457        C458   1.413   1_655  A
C457        C462   1.408       .  A
C457       Br464   1.924   1_655  S
C458        C459   1.413       .  A
C459        C460   1.427       .  A
C459       Br466   1.938       .  S
C460        C461   1.434       .  A
C460       Br465   1.906       .  S
C461        C462   1.419   1_455  A
C462       Br463   1.911       .  S
C467        C468   1.421   1_545  A
C467        C472   1.422       .  A
C467       Br474   1.915       .  S
C468        C469   1.415       .  A
C469        C470   1.420       .  A
C469       Br476   1.920       .  S
C470        C471   1.431       .  A
C470       Br475   1.907       .  S
C471        C472   1.424   1_565  A
C472       Br473   1.912       .  S
C477        C478   1.434       .  A
C477        C482   1.431       .  A
C477       Br484   1.912   1_455  S
C478        C479   1.422       .  A
C479        C480   1.410       .  A
C479       Br486   1.906       .  S
C480        C481   1.408       .  A
C480       Br485   1.918       .  S
C481        C482   1.415       .  A
C482       Br483   1.930       .  S
C487        C488   1.426       .  A
C487        C492   1.410       .  A
C487       Br494   1.942       .  S
C488        C489   1.405       .  A
C489        C490   1.406       .  A
C489       Br496   1.928       .  S
C490        C491   1.422       .  A
C490       Br495   1.933       .  S
C491        C492   1.412       .  A
C492       Br493   1.936       .  S
C497        C498   1.413       .  A
C497        C502   1.397       .  A
C497       Br504   1.930       .  S
C498        C499   1.409       .  A
C499        C500   1.409       .  A
C499       Br506   1.924       .  S
C500        C501   1.416       .  A
C500       Br505   1.932       .  S
C501        C502   1.402       .  A
C502       Br503   1.922       .  S
C507        C508   1.402       .  A
C507        C512   1.409       .  A
C507       Br514   1.931       .  S
C508        C509   1.422       .  A
C509        C510   1.411       .  A
C509       Br516   1.923       .  S
C510        C511   1.406       .  A
C510       Br515   1.934       .  S
C511        C512   1.428       .  A
C512       Br513   1.932       .  S
C517        C518   1.407       .  A
C517        C522   1.409       .  A
C517       Br524   1.928       .  S
C518        C519   1.407       .  A
C519        C520   1.420       .  A
C519       Br526   1.919       .  S
C520        C521   1.417       .  A
C520       Br525   1.923       .  S
C521        C522   1.420       .  A
C522       Br523   1.930       .  S
C527        C528   1.421       .  A
C527        C532   1.419       .  A
C527       Br534   1.925       .  S
C528        C529   1.432       .  A
C529        C530   1.400       .  A
C529       Br536   1.940       .  S
C530        C531   1.394       .  A
C530       Br535   1.925       .  S
C531        C532   1.404       .  A
C532       Br533   1.923       .  S
C537        C538   1.415       .  A
C537        C542   1.410       .  A
C537       Br544   1.924       .  S
C538        C539   1.397       .  A
C539        C540   1.404       .  A
C539       Br546   1.908       .  S
C540        C541   1.431       .  A
C540       Br545   1.944       .  S
C541        C542   1.421       .  A
C542       Br543   1.939       .  S
C547        C548   1.428       .  A
C547        C552   1.426       .  A
C547       Br554   1.926       .  S
C548        C549   1.406       .  A
C549        C550   1.399       .  A
C549       Br556   1.928       .  S
C550        C551   1.422       .  A
C550       Br555   1.922       .  S
C551        C552   1.415       .  A
C552       Br553   1.925       .  S
C557        C558   1.405       .  A
C557        C562   1.391       .  A
C557       Br564   1.927       .  S
C558        C559   1.417       .  A
C559        C560   1.425       .  A
C559       Br566   1.913       .  S
C560        C561   1.421       .  A
C560       Br565   1.917       .  S
C561        C562   1.410       .  A
C562       Br563   1.916       .  S
C567        C568   1.428       .  A
C567        C572   1.421       .  A
C567       Br574   1.908       .  S
C568        C569   1.422       .  A
C569        C570   1.416       .  A
C569       Br576   1.917       .  S
C570        C571   1.412       .  A
C570       Br575   1.935       .  S
C571        C572   1.408       .  A
C572       Br573   1.920       .  S
C577        C578   1.428       .  A
C577        C582   1.427       .  A
C577       Br584   1.910       .  S
C578        C579   1.419       .  A
C579        C580   1.397       .  A
C579       Br586   1.904       .  S
C580        C581   1.406       .  A
C580       Br585   1.918       .  S
C581        C582   1.416       .  A
C582       Br583   1.926       .  S
C587        C588   1.413       .  A
C587        C592   1.418       .  A
C587       Br594   1.916       .  S
C588        C589   1.426       .  A
C589        C590   1.429       .  A
C589       Br596   1.924       .  S
C590        C591   1.423       .  A
C590       Br595   1.926       .  S
C591        C592   1.423       .  A
C592       Br593   1.915       .  S
C597        C598   1.415       .  A
C597        C602   1.413       .  A
C597       Br604   1.924       .  S
C598        C599   1.423       .  A
C599        C600   1.429       .  A
C599       Br606   1.913       .  S
C600        C601   1.426       .  A
C600       Br605   1.921       .  S
C601        C602   1.418       .  A
C602       Br603   1.920       .  S
C607        C608   1.427       .  A
C607        C612   1.405       .  A
C607       Br614   1.933       .  S
C608        C609   1.417       .  A
C609        C610   1.419       .  A
C609       Br616   1.920       .  S
C610        C611   1.411       .  A
C610       Br615   1.928       .  S
C611        C612   1.400       .  A
C612       Br613   1.911       .  S
C617        C618   1.398       .  A
C617        C622   1.397       .  A
C617       Br624   1.928       .  S
C618        C619   1.429       .  A
C619        C620   1.418       .  A
C619       Br626   1.912       .  S
C620        C621   1.405       .  A
C620       Br625   1.935       .  S
C621        C622   1.430       .  A
C622       Br623   1.936       .  S
C627        C628   1.405       .  A
C627        C632   1.410       .  A
C627       Br634   1.925       .  S
C628        C629   1.412       .  A
C629        C630   1.411       .  A
C629       Br636   1.901       .  S
C630        C631   1.411       .  A
C630       Br635   1.933       .  S
C631        C632   1.426       .  A
C632       Br633   1.929       .  S
C637        C638   1.421       .  A
C637        C642   1.410       .  A
C637       Br644   1.922       .  S
C638        C639   1.420       .  A
C639        C640   1.412       .  A
C639       Br646   1.944       .  S
C640        C641   1.424       .  A
C640       Br645   1.939       .  S
C641        C642   1.406       .  A
C642       Br643   1.923       .  S
C647        C648   1.400       .  A
C647        C652   1.415       .  A
C647       Br654   1.919       .  S
C648        C649   1.402       .  A
C649        C650   1.415       .  A
C649       Br656   1.922       .  S
C650        C651   1.424       .  A
C650       Br655   1.922       .  S
C651        C652   1.414       .  A
C652       Br653   1.917       .  S
C657        C658   1.403       .  A
C657        C662   1.401       .  A
C657       Br664   1.932       .  S
C658        C659   1.423       .  A
C659        C660   1.423       .  A
C659       Br666   1.906       .  S
C660        C661   1.409       .  A
C660       Br665   1.930       .  S
C661        C662   1.435       .  A
C662       Br663   1.947       .  S
C667        C668   1.414       .  A
C667        C672   1.405       .  A
C667       Br674   1.918       .  S
C668        C669   1.427       .  A
C669        C670   1.428       .  A
C669       Br676   1.922       .  S
C670        C671   1.421       .  A
C670       Br675   1.925       .  S
C671        C672   1.424       .  A
C672       Br673   1.912       .  S
C677        C678   1.433       .  A
C677        C682   1.413       .  A
C677       Br684   1.908       .  S
C678        C679   1.428       .  A
C679        C680   1.420       .  A
C679       Br686   1.919   1_454  S
C680        C681   1.413       .  A
C680       Br685   1.927       .  S
C681        C682   1.399       .  A
C682       Br683   1.916   1_554  S
C687        C688   1.421       .  A
C687        C692   1.421       .  A
C687       Br694   1.927       .  S
C688        C689   1.408   1_655  A
C689        C690   1.398       .  A
C689       Br696   1.918       .  S
C690        C691   1.423       .  A
C690       Br695   1.900       .  S
C691        C692   1.448   1_455  A
C692       Br693   1.926       .  S
C697        C698   1.428       .  A
C697        C702   1.412       .  A
C697       Br704   1.918       .  S
C698        C699   1.426       .  A
C699        C700   1.415       .  A
C699       Br706   1.927   1_554  S
C700        C701   1.412       .  A
C700       Br705   1.929       .  S
C701        C702   1.400       .  A
C702       Br703   1.914       .  S
C707        C708   1.419       .  A
C707        C712   1.424       .  A
C707       Br714   1.926       .  S
C708        C709   1.429   1_554  A
C709        C710   1.422       .  A
C709       Br716   1.914       .  S
C710        C711   1.419   1_556  A
C710       Br715   1.916       .  S
C711        C712   1.439       .  A
C712       Br713   1.937       .  S
C717        C718   1.420   1_655  A
C717        C722   1.416   1_655  A
C717       Br724   1.930       .  S
C718        C719   1.420       .  A
C719        C720   1.410       .  A
C719       Br726   1.915       .  S
C720        C721   1.405       .  A
C720       Br725   1.912   1_455  S
C721        C722   1.422       .  A
C722       Br723   1.935       .  S
C727        C728   1.426       .  A
C727        C732   1.407       .  A
C727       Br734   1.929       .  S
C728        C729   1.412       .  A
C729        C730   1.418       .  A
C729       Br736   1.931       .  S
C730        C731   1.425       .  A
C730       Br735   1.937       .  S
C731        C732   1.400       .  A
C732       Br733   1.936       .  S
C737        C738   1.421       .  A
C737        C742   1.421       .  A
C737       Br744   1.925       .  S
C738        C739   1.420       .  A
C739        C740   1.409       .  A
C739       Br746   1.932       .  S
C740        C741   1.406       .  A
C740       Br745   1.925       .  S
C741        C742   1.408       .  A
C742       Br743   1.922       .  S
C747        C748   1.411       .  A
C747        C752   1.411       .  A
C747       Br754   1.923       .  S
C748        C749   1.414       .  A
C749        C750   1.418       .  A
C749       Br756   1.920       .  S
C750        C751   1.411       .  A
C750       Br755   1.921       .  S
C751        C752   1.414       .  A
C752       Br753   1.922       .  S
C757        C758   1.408       .  A
C757        C762   1.403       .  A
C757       Br764   1.945       .  S
C758        C759   1.424       .  A
C759        C760   1.413       .  A
C759       Br766   1.916       .  S
C760        C761   1.408       .  A
C760       Br765   1.934       .  S
C761        C762   1.438       .  A
C762       Br763   1.948       .  S
C767        C768   1.408       .  A
C767        C772   1.407       .  A
C767       Br774   1.934       .  S
C768        C769   1.421       .  A
C769        C770   1.415       .  A
C769       Br776   1.929       .  S
C770        C771   1.414       .  A
C770       Br775   1.935       .  S
C771        C772   1.425       .  A
C772       Br773   1.923       .  S
C777        C778   1.423       .  A
C777        C782   1.425       .  A
C777       Br784   1.919       .  S
C778        C779   1.401       .  A
C779        C780   1.404       .  A
C779       Br786   1.925       .  S
C780        C781   1.426       .  A
C780       Br785   1.938       .  S
C781        C782   1.415       .  A
C782       Br783   1.928       .  S
C787        C788   1.430       .  A
C787        C792   1.433       .  A
C787       Br794   1.919       .  S
C788        C789   1.419   1_565  A
C789        C790   1.418   1_545  A
C789       Br796   1.915       .  S
C790        C791   1.411       .  A
C790       Br795   1.908       .  S
C791        C792   1.424       .  A
C792       Br793   1.931       .  S
C797        C798   1.418       .  A
C797        C802   1.420       .  A
C797       Br804   1.910       .  S
C798        C799   1.424   1_556  A
C799        C800   1.428       .  A
C799       Br806   1.918       .  S
C800        C801   1.426   1_554  A
C800       Br805   1.912       .  S
C801        C802   1.419       .  A
C802       Br803   1.915       .  S
C807        C808   1.405       .  A
C807        C812   1.399   1_554  A
C807       Br814   1.927       .  S
C808        C809   1.417       .  A
C809        C810   1.429       .  A
C809       Br816   1.921       .  S
C810        C811   1.430   1_554  A
C810       Br815   1.915   1_554  S
C811        C812   1.424       .  A
C812       Br813   1.905       .  S
C817        C818   1.421       .  A
C817        C822   1.421       .  A
C817       Br824   1.909       .  S
C818        C819   1.422       .  A
C819        C820   1.422       .  A
C819       Br826   1.926       .  S
C820        C821   1.417       .  A
C820       Br825   1.910       .  S
C821        C822   1.417       .  A
C822       Br823   1.932       .  S
C827        C828   1.416       .  A
C827        C832   1.424       .  A
C827       Br834   1.934       .  S
C828        C829   1.417       .  A
C829        C830   1.407       .  A
C829       Br836   1.917       .  S
C830        C831   1.411       .  A
C830       Br835   1.913       .  S
C831        C832   1.428       .  A
C832       Br833   1.914       .  S
C837        C838   1.410       .  A
C837        C842   1.398       .  A
C837       Br844   1.916       .  S
C838        C839   1.431   1_545  A
C839        C840   1.432       .  A
C839       Br846   1.915       .  S
C840        C841   1.417       .  A
C840       Br845   1.927       .  S
C841        C842   1.412   1_565  A
C842       Br843   1.919   1_545  S
C847        C848   1.401       .  A
C847        C852   1.409       .  A
C847       Br854   1.920       .  S
C848        C849   1.405       .  A
C849        C850   1.411       .  A
C849       Br856   1.919       .  S
C850        C851   1.407       .  A
C850       Br855   1.908       .  S
C851        C852   1.417       .  A
C852       Br853   1.923       .  S
C857        C858   1.403       .  A
C857        C862   1.418       .  A
C857       Br864   1.918       .  S
C858        C859   1.397       .  A
C859        C860   1.404       .  A
C859       Br866   1.925       .  S
C860        C861   1.424       .  A
C860       Br865   1.926       .  S
C861        C862   1.419       .  A
C862       Br863   1.923       .  S
C867        C868   1.432       .  A
C867        C872   1.428       .  A
C867       Br874   1.934       .  S
C868        C869   1.405       .  A
C869        C870   1.381       .  A
C869       Br876   1.942       .  S
C870        C871   1.435       .  A
C870       Br875   1.957       .  S
C871        C872   1.414       .  A
C872       Br873   1.926       .  S
C877        C878   1.433       .  A
C877        C882   1.408       .  A
C877       Br884   1.944       .  S
C878        C879   1.409       .  A
C879        C880   1.416       .  A
C879       Br886   1.934       .  S
C880        C881   1.429       .  A
C880       Br885   1.938       .  S
C881        C882   1.406       .  A
C882       Br883   1.934       .  S
C887        C888   1.415       .  A
C887        C892   1.418       .  A
C887       Br894   1.935       .  S
C888        C889   1.432       .  A
C889        C890   1.411       .  A
C889       Br896   1.942       .  S
C890        C891   1.404       .  A
C890       Br895   1.921       .  S
C891        C892   1.423       .  A
C892       Br893   1.927       .  S
C897        C898   1.428       .  A
C897        C902   1.410       .  A
C897       Br904   1.937       .  S
C898        C899   1.419       .  A
C899        C900   1.421       .  A
C899       Br906   1.928       .  S
C900        C901   1.411       .  A
C900       Br905   1.927       .  S
C901        C902   1.410       .  A
C902       Br903   1.941       .  S
C907        C908   1.409       .  A
C907        C912   1.415       .  A
C907       Br914   1.935       .  S
C908        C909   1.427       .  A
C909        C910   1.410       .  A
C909       Br916   1.943       .  S
C910        C911   1.411       .  A
C910       Br915   1.923       .  S
C911        C912   1.428       .  A
C912       Br913   1.930       .  S
C917        C918   1.395       .  A
C917        C922   1.398       .  A
C917       Br924   1.913       .  S
C918        C919   1.409       .  A
C919        C920   1.414       .  A
C919       Br926   1.916       .  S
C920        C921   1.419       .  A
C920       Br925   1.929       .  S
C921        C922   1.424       .  A
C922       Br923   1.942       .  S
C927        C928   1.415       .  A
C927        C932   1.394       .  A
C927       Br934   1.943       .  S
C928        C929   1.417       .  A
C929        C930   1.408       .  A
C929       Br936   1.936       .  S
C930        C931   1.410       .  A
C930       Br935   1.921       .  S
C931        C932   1.416       .  A
C932       Br933   1.929       .  S
C937        C938   1.414       .  A
C937        C942   1.425       .  A
C937       Br944   1.932       .  S
C938        C939   1.434       .  A
C939        C940   1.412       .  A
C939       Br946   1.939       .  S
C940        C941   1.407       .  A
C940       Br945   1.918       .  S
C941        C942   1.430       .  A
C942       Br943   1.928       .  S
C947        C948   1.407       .  A
C947        C952   1.412       .  A
C947       Br954   1.929       .  S
C948        C949   1.425       .  A
C949        C950   1.404       .  A
C949       Br956   1.925       .  S
C950        C951   1.398       .  A
C950       Br955   1.926       .  S
C951        C952   1.421       .  A
C952       Br953   1.934       .  S
C957        C958   1.435       .  A
C957        C962   1.440       .  A
C957       Br964   1.923       .  S
C958        C959   1.396       .  A
C959        C960   1.396       .  A
C959       Br966   1.923       .  S
C960        C961   1.429       .  A
C960       Br965   1.938       .  S
C961        C962   1.419       .  A
C962       Br963   1.923       .  S
C967        C968   1.415       .  A
C967        C972   1.425       .  A
C967       Br974   1.922       .  S
C968        C969   1.414       .  A
C969        C970   1.411       .  A
C969       Br976   1.923       .  S
C970        C971   1.420       .  A
C970       Br975   1.938       .  S
C971        C972   1.419       .  A
C972       Br973   1.930       .  S
C977        C978   1.429       .  A
C977        C982   1.402       .  A
C977       Br984   1.933       .  S
C978        C979   1.411       .  A
C979        C980   1.414       .  A
C979       Br986   1.929       .  S
C980        C981   1.419       .  A
C980       Br985   1.932       .  S
C981        C982   1.399       .  A
C982       Br983   1.933       .  S
C987        C988   1.403       .  A
C987        C992   1.412       .  A
C987       Br994   1.902       .  S
C988        C989   1.422       .  A
C989        C990   1.410       .  A
C989       Br996   1.928       .  S
C990        C991   1.400       .  A
C990       Br995   1.925       .  S
C991        C992   1.405       .  A
C992       Br993   1.918       .  S
C997        C998   1.404       .  A
C997       C1002   1.405       .  A
C997      Br1004   1.924       .  S
C998        C999   1.415       .  A
C999       C1000   1.406       .  A
C999      Br1006   1.919       .  S
C1000      C1001   1.410       .  A
C1000     Br1005   1.935       .  S
C1001      C1002   1.409       .  A
C1002     Br1003   1.917       .  S
C1007      C1008   1.430       .  A
C1007      C1012   1.411       .  A
C1007     Br1014   1.940       .  S
C1008      C1009   1.416       .  A
C1009      C1010   1.418       .  A
C1009     Br1016   1.936       .  S
C1010      C1011   1.426       .  A
C1010     Br1015   1.927       .  S
C1011      C1012   1.402       .  A
C1012     Br1013   1.920       .  S
C1017      C1018   1.425       .  A
C1017      C1022   1.400       .  A
C1017     Br1024   1.945       .  S
C1018      C1019   1.414       .  A
C1019      C1020   1.415       .  A
C1019     Br1026   1.929       .  S
C1020      C1021   1.413       .  A
C1020     Br1025   1.920       .  S
C1021      C1022   1.411       .  A
C1022     Br1023   1.941       .  S
C1027      C1028   1.408       .  A
C1027      C1032   1.411       .  A
C1027     Br1034   1.932       .  S
C1028      C1029   1.431       .  A
C1029      C1030   1.396       .  A
C1029     Br1036   1.942       .  S
C1030      C1031   1.399       .  A
C1030     Br1035   1.936       .  S
C1031      C1032   1.424       .  A
C1032     Br1033   1.936       .  S
C1037      C1038   1.417       .  A
C1037      C1042   1.423       .  A
C1037     Br1044   1.926       .  S
C1038      C1039   1.414       .  A
C1039      C1040   1.395       .  A
C1039     Br1046   1.945       .  S
C1040      C1041   1.410       .  A
C1040     Br1045   1.910       .  S
C1041      C1042   1.417       .  A
C1042     Br1043   1.919       .  S
C1047      C1048   1.414       .  A
C1047      C1052   1.406       .  A
C1047     Br1054   1.912       .  S
C1048      C1049   1.424       .  A
C1049      C1050   1.412       .  A
C1049     Br1056   1.937       .  S
C1050      C1051   1.411       .  A
C1050     Br1055   1.924       .  S
C1051      C1052   1.407       .  A
C1052     Br1053   1.929       .  S
C1057      C1058   1.402       .  A
C1057      C1062   1.415       .  A
C1057     Br1064   1.916       .  S
C1058      C1059   1.400       .  A
C1059      C1060   1.413       .  A
C1059     Br1066   1.922       .  S
C1060      C1061   1.420       .  A
C1060     Br1065   1.924       .  S
C1061      C1062   1.408       .  A
C1062     Br1063   1.911       .  S
C1067      C1068   1.428       .  A
C1067      C1072   1.401       .  A
C1067     Br1074   1.945       .  S
C1068      C1069   1.411       .  A
C1069      C1070   1.410       .  A
C1069     Br1076   1.933       .  S
C1070      C1071   1.411       .  A
C1070     Br1075   1.903       .  S
C1071      C1072   1.407       .  A
C1072     Br1073   1.931       .  S
C1077      C1078   1.411       .  A
C1077      C1082   1.410       .  A
C1077     Br1084   1.937       .  S
C1078      C1079   1.424       .  A
C1079      C1080   1.406       .  A
C1079     Br1086   1.932       .  S
C1080      C1081   1.404       .  A
C1080     Br1085   1.927       .  S
C1081      C1082   1.428       .  A
C1082     Br1083   1.943       .  S
