geometry optimzed in LAMMPS
_audit_creation_date              2020-11-30 
_audit_creation_method            'lammps2cif' 
_symmetry_space_group_name_H-M    'P1' 
_symmetry_Int_Tables_number       1 
_symmetry_cell_setting            triclinic 
loop_ 
_symmetry_equiv_pos_as_xyz 
  x,y,z 
_cell_length_a                    37.00145405 
_cell_length_b                    36.95003781830942 
_cell_length_c                    36.90971390011482 
_cell_angle_alpha                 90.05267514429788 
_cell_angle_beta                  89.95188841279787 
_cell_angle_gamma                 90.06199283461292 
loop_ 
_atom_site_label 
_atom_site_type_symbol 
_atom_site_fract_x 
_atom_site_fract_y 
_atom_site_fract_z 
_atom_site_charge 
C1          C  0.35851488  0.64095540  0.13964091    -0.01000
C2          C  0.51227357  0.48727782  0.14110668    -0.01000
C3          C  0.51217583  0.64145321  0.14080855    -0.01000
C4          C  0.35816282  0.48692003  0.13985776    -0.01000
O5          O  0.45729405  0.61004984  0.14080845    -0.71500
O6          O  0.41363649  0.51772947  0.14141359    -0.72500
O7          O  0.38970479  0.58585187  0.14044099    -0.61100
O8          O  0.48159339  0.54251547  0.14166286    -0.69500
O9          O  0.47232077  0.51736339  0.19267550    -0.69100
O10         O  0.39725750  0.61100740  0.19187597    -0.60300
O11         O  0.38768843  0.52668005  0.19206897    -0.72800
O12         O  0.48151192  0.60214040  0.19255065    -0.71600
Cu13       Cu  0.43553502  0.56400611  0.14044911     1.04600
Cu14       Cu  0.43468366  0.56430721  0.19725177     1.04300
C15         C  0.48166778  0.61939153  0.16198733     0.94700
C16         C  0.38834051  0.50895552  0.16178674     0.93800
C17         C  0.38036777  0.61067239  0.16117102     0.86000
C18         C  0.49020480  0.51763680  0.16247506     0.92200
C19         C  0.35921911  0.48617950  0.98540213    -0.01000
C20         C  0.51342738  0.48675049  0.98624520    -0.01000
C21         C  0.51251596  0.64066562  0.98624621    -0.01000
C22         C  0.35939054  0.64017852  0.98518397    -0.01000
O23         O  0.30756239  0.60984478  0.02403270    -0.71500
O24         O  0.30680572  0.51707229  0.10005372    -0.72500
O25         O  0.30694427  0.60177113  0.10865695    -0.61100
O26         O  0.30740564  0.52570418  0.01538088    -0.69500
O27         O  0.35851452  0.51764150  0.04061331    -0.69100
O28         O  0.35891616  0.60935087  0.08483043    -0.60300
O29         O  0.35806649  0.54187974  0.10883646    -0.72800
O30         O  0.35945958  0.58559809  0.01709906    -0.71600
Cu31       Cu  0.30232464  0.56362133  0.06202592     1.04600
Cu32       Cu  0.35932762  0.56358251  0.06282167     1.04300
C33         C  0.33832138  0.60981983  0.00729404     0.94700
C34         C  0.33702131  0.51726221  0.11775567     0.93800
C35         C  0.33755227  0.61884630  0.10902169     0.86000
C36         C  0.33782170  0.50842422  0.01573305     0.92200
O37         O  0.45755854  0.64117009  0.01718308    -0.71500
O38         O  0.41384557  0.64186311  0.10908634    -0.72500
O39         O  0.39003108  0.64126155  0.04077414    -0.61100
O40         O  0.48175857  0.64208373  0.08516681    -0.69500
O41         O  0.47283810  0.69319054  0.11019842    -0.69100
O42         O  0.39828389  0.69243664  0.01560359    -0.60300
O43         O  0.38853330  0.69281615  0.10024639    -0.72800
O44         O  0.48237869  0.69261310  0.02534397    -0.71600
Cu45       Cu  0.43579191  0.64096951  0.06308372     1.04600
Cu46       Cu  0.43551608  0.69772734  0.06283459     1.04300
C47         C  0.48217739  0.66209094  0.00803180     0.94700
C48         C  0.38888120  0.66251953  0.11785737     0.93800
C49         C  0.38111741  0.66186615  0.01572330     0.86000
C50         C  0.49041458  0.66288138  0.11017195     0.92200
O51         O  0.51290892  0.51824281  0.08577802    -0.71500
O52         O  0.51240247  0.60942127  0.04120270    -0.72500
O53         O  0.51284461  0.54163994  0.01769956    -0.61100
O54         O  0.51244442  0.58643046  0.10924715    -0.69500
O55         O  0.56403118  0.61102973  0.10165335    -0.69100
O56         O  0.56460005  0.51767115  0.02583367    -0.60300
O57         O  0.56427494  0.60202064  0.01708317    -0.72800
O58         O  0.56414558  0.52663043  0.11069179    -0.71600
Cu59       Cu  0.51208287  0.56393396  0.06350108     1.04600
Cu60       Cu  0.56910614  0.56434560  0.06381865     1.04300
C61         C  0.53371507  0.50926989  0.11060556     0.94700
C62         C  0.53359697  0.61885513  0.01683955     0.93800
C63         C  0.53420521  0.51741266  0.00842748     0.86000
C64         C  0.53344119  0.61097389  0.11872590     0.92200
O65         O  0.48175317  0.48659886  0.04116783    -0.71500
O66         O  0.39034729  0.48725908  0.08529060    -0.72500
O67         O  0.45781597  0.48716119  0.10911955    -0.61100
O68         O  0.41376092  0.48679205  0.01735005    -0.69500
O69         O  0.38978905  0.43477671  0.02481848    -0.69100
O70         O  0.48206512  0.43537057  0.10165768    -0.60300
O71         O  0.39752549  0.43529980  0.10938700    -0.72800
O72         O  0.47410986  0.43491456  0.01670713    -0.71600
Cu73       Cu  0.43593562  0.48750478  0.06319380     1.04600
Cu74       Cu  0.43588871  0.43028083  0.06317866     1.04300
C75         C  0.49122866  0.46549774  0.01669586     0.94700
C76         C  0.38060149  0.46597390  0.10947176     0.93800
C77         C  0.48200708  0.46597782  0.11882415     0.86000
C78         C  0.38964488  0.46536546  0.00772878     0.92200
O79         O  0.39910197  0.51587124  0.93348594    -0.71500
O80         O  0.47384555  0.61020430  0.93398593    -0.72500
O81         O  0.48361051  0.52583760  0.93398339    -0.61100
O82         O  0.38959872  0.60062084  0.93343079    -0.69500
O83         O  0.41441296  0.60937096  0.98474655    -0.69100
O84         O  0.45779968  0.51703455  0.98476579    -0.60300
O85         O  0.48179348  0.58522986  0.98535617    -0.72800
O86         O  0.38963918  0.54164496  0.98414762    -0.71600
Cu87       Cu  0.43655634  0.56311225  0.92872082     1.04600
Cu88       Cu  0.43590726  0.56326732  0.98541627     1.04300
C89         C  0.38112599  0.51641877  0.96362390     0.94700
C90         C  0.49086166  0.61013506  0.96464404     0.93800
C91         C  0.48309707  0.50835778  0.96437501     0.86000
C92         C  0.38975255  0.61826059  0.96379777     0.92200
C93         C  0.51581192  0.13861096  0.64155607    -0.01000
C94         C  0.51493764  0.14019299  0.48718983    -0.01000
C95         C  0.36156641  0.13997679  0.64212206    -0.01000
C96         C  0.36171983  0.14113306  0.48794527    -0.01000
O97         O  0.46004736  0.14105423  0.51871257    -0.71500
O98         O  0.41713223  0.14139170  0.61158347    -0.72500
O99         O  0.39243974  0.14184366  0.54343265    -0.61100
O100        O  0.48488878  0.14059744  0.58629320    -0.69500
O101        O  0.47660844  0.19127480  0.61235581    -0.69100
O102        O  0.40146048  0.19280892  0.51821185    -0.60300
O103        O  0.39178288  0.19224886  0.60295628    -0.72800
O104        O  0.48566321  0.19196094  0.52744037    -0.71600
Cu105      Cu  0.43858956  0.14056369  0.56501611     1.04600
Cu106      Cu  0.43895094  0.19708885  0.56532630     1.04300
C107        C  0.48497068  0.16170737  0.50965502     0.94700
C108        C  0.39203634  0.16188228  0.62047252     0.93800
C109        C  0.38376614  0.16255151  0.51841008     0.86000
C110        C  0.49398948  0.16083645  0.61155553     0.92200
C111        C  0.51349122  0.98578491  0.48596514    -0.01000
C112        C  0.35945920  0.98730968  0.48616122    -0.01000
C113        C  0.35958567  0.98591073  0.64089982    -0.01000
C114        C  0.51390966  0.98421058  0.63996660    -0.01000
O115        O  0.56691144  0.10791180  0.60177574    -0.71500
O116        O  0.56559399  0.01550441  0.52510463    -0.72500
O117        O  0.56643760  0.10022273  0.51713519    -0.61100
O118        O  0.56602012  0.02338529  0.60979480    -0.69500
O119        O  0.51452338  0.01594960  0.58513467    -0.69100
O120        O  0.51489131  0.10809870  0.54174782    -0.60300
O121        O  0.51426992  0.04053142  0.51744015    -0.72800
O122        O  0.51499898  0.08394177  0.60939392    -0.71600
Cu123      Cu  0.57109915  0.06171242  0.56340743     1.04600
Cu124      Cu  0.51409340  0.06212975  0.56345288     1.04300
C125        C  0.53638402  0.10811236  0.61894283     0.94700
C126        C  0.53503171  0.01588307  0.50802395     0.93800
C127        C  0.53605489  0.11762848  0.51735659     0.86000
C128        C  0.53542586  0.00630652  0.60961880     0.92200
O129        O  0.46066594  0.10784548  0.64159573    -0.71500
O130        O  0.41512271  0.01663611  0.64098757    -0.72500
O131        O  0.39284896  0.08493612  0.64132942    -0.61100
O132        O  0.48373893  0.03973739  0.64121582    -0.69500
O133        O  0.47522007  0.01448291  0.69235918    -0.69100
O134        O  0.40061150  0.10859445  0.69346523    -0.60300
O135        O  0.39095014  0.02432826  0.69286059    -0.72800
O136        O  0.48507393  0.09914608  0.69314372    -0.71600
Cu137      Cu  0.43810415  0.06225509  0.64070046     1.04600
Cu138      Cu  0.43800712  0.06161471  0.69781636     1.04300
C139        C  0.48522823  0.11671356  0.66277157     0.94700
C140        C  0.39054043  0.00745182  0.66210316     0.93800
C141        C  0.38356475  0.10913402  0.66282641     0.86000
C142        C  0.49251420  0.01470485  0.66183561     0.92200
O143        O  0.30834305  0.02683808  0.51711032    -0.71500
O144        O  0.30954579  0.10165237  0.61111805    -0.72500
O145        O  0.30975921  0.11077463  0.52667308    -0.61100
O146        O  0.30828776  0.01699301  0.60157709    -0.69500
O147        O  0.35963637  0.04141446  0.61050859    -0.69100
O148        O  0.36152169  0.08629239  0.51940066    -0.60300
O149        O  0.36141976  0.10918648  0.58699349    -0.72800
O150        O  0.35967125  0.01813384  0.54176049    -0.71600
Cu151      Cu  0.30411976  0.06415625  0.56415443     1.04600
Cu152      Cu  0.36113836  0.06368034  0.56465526     1.04300
C153        C  0.33863335  0.00937456  0.51697061     0.94700
C154        C  0.34029779  0.11848300  0.61141810     0.93800
C155        C  0.34052192  0.11074909  0.50991189     0.86000
C156        C  0.33855039  0.01675244  0.61919579     0.92200
O157        O  0.41625512  0.10966006  0.48696475    -0.71500
O158        O  0.45837251  0.01691513  0.48492517    -0.72500
O159        O  0.48337560  0.08506546  0.48624985    -0.61100
O160        O  0.39071738  0.04236178  0.48552660    -0.69500
O161        O  0.39936384  0.01728791  0.43436487    -0.69100
O162        O  0.47535418  0.11060953  0.43516249    -0.60300
O163        O  0.48412633  0.02606092  0.43422271    -0.72800
O164        O  0.39117501  0.10210924  0.43552810    -0.71600
Cu165      Cu  0.43722359  0.06344818  0.48657611     1.04600
Cu166      Cu  0.43747179  0.06405926  0.42984113     1.04300
C167        C  0.39168440  0.11918744  0.46621033     0.94700
C168        C  0.48344253  0.00808917  0.46432119     0.93800
C169        C  0.49258363  0.11007660  0.46567584     0.86000
C170        C  0.38165103  0.01759744  0.46467016     0.92200
O171        O  0.45873388  0.98505097  0.60901947    -0.71500
O172        O  0.41415319  0.98666231  0.51760458    -0.72500
O173        O  0.39050230  0.98574134  0.58564492    -0.61100
O174        O  0.48175991  0.98593885  0.54083802    -0.69500
O175        O  0.47379887  0.93429646  0.51617563    -0.69100
O176        O  0.39812740  0.93392649  0.60966070    -0.60300
O177        O  0.38946541  0.93496201  0.52480090    -0.72800
O178        O  0.48255936  0.93322794  0.60044856    -0.71600
Cu179      Cu  0.43628914  0.98641769  0.56331820     1.04600
Cu180      Cu  0.43590306  0.92926401  0.56270871     1.04300
C181        C  0.48304759  0.96363705  0.61789675     0.94700
C182        C  0.38967609  0.96571392  0.50796506     0.93800
C183        C  0.38115028  0.96456819  0.61006209     0.86000
C184        C  0.49107098  0.96480679  0.51632578     0.92200
C185        C  0.86119591  0.48787958  0.64179503    -0.01000
C186        C  0.85936395  0.48647354  0.48827619    -0.01000
C187        C  0.86061993  0.64096313  0.48785229    -0.01000
C188        C  0.86167404  0.64136469  0.64116375    -0.01000
O189        O  0.89133016  0.64176212  0.54262177    -0.71500
O190        O  0.98328963  0.64056412  0.58538697    -0.72500
O191        O  0.91605495  0.64067646  0.60938293    -0.61100
O192        O  0.95919305  0.64183567  0.51714481    -0.69500
O193        O  0.98549091  0.69220469  0.52625958    -0.69100
O194        O  0.89233378  0.69279062  0.60196968    -0.60300
O195        O  0.97629317  0.69234450  0.61012560    -0.72800
O196        O  0.90060903  0.69266032  0.51729157    -0.71600
Cu197      Cu  0.93753686  0.64056060  0.56357988     1.04600
Cu198      Cu  0.93865764  0.69744932  0.56388456     1.04300
C199        C  0.88257066  0.66257266  0.51788573     0.94700
C200        C  0.99295962  0.66158640  0.60986229     0.93800
C201        C  0.89203989  0.66210918  0.61893508     0.86000
C202        C  0.98477387  0.66191758  0.50864199     0.92200
O203        O  0.91677090  0.51771017  0.64326927    -0.71500
O204        O  0.95968362  0.60996134  0.64174766    -0.72500
O205        O  0.98399353  0.54251821  0.64211778    -0.61100
O206        O  0.89176608  0.58573095  0.64293635    -0.69500
O207        O  0.90109376  0.61206629  0.69334755    -0.69100
O208        O  0.97519128  0.51750547  0.69330793    -0.60300
O209        O  0.98521616  0.60194507  0.69278941    -0.72800
O210        O  0.89075874  0.52770380  0.69366790    -0.71600
Cu211      Cu  0.93800377  0.56400502  0.64182243     1.04600
Cu212      Cu  0.93810746  0.56482123  0.69835320     1.04300
C213        C  0.89138220  0.50957714  0.66361701     0.94700
C214        C  0.98477741  0.61900171  0.66215348     0.93800
C215        C  0.99261564  0.51757655  0.66282761     0.86000
C216        C  0.88329688  0.61123087  0.66318085     0.92200
O217        O  0.89763089  0.51792850  0.43652475    -0.71500
O218        O  0.97580455  0.60872478  0.43544549    -0.72500
O219        O  0.98233587  0.52395945  0.43546081    -0.61100
O220        O  0.89161242  0.60217382  0.43621912    -0.69500
O221        O  0.91436650  0.60782843  0.48919074    -0.69100
O222        O  0.96053672  0.51794083  0.48875840    -0.60300
O223        O  0.98256257  0.58586085  0.48813532    -0.72800
O224        O  0.89286960  0.53991354  0.49001059    -0.71600
Cu225      Cu  0.93681378  0.56314039  0.43130864     1.04600
Cu226      Cu  0.93759560  0.56292325  0.48941884     1.04300
C227        C  0.88187157  0.51699909  0.46786466     0.94700
C228        C  0.99255739  0.60937200  0.46621547     0.93800
C229        C  0.98356478  0.50758550  0.46646596     0.86000
C230        C  0.89103751  0.61837890  0.46730520     0.92200
O231        O  0.89938344  0.43560518  0.61160734    -0.71500
O232        O  0.97401709  0.43369245  0.51717472    -0.72500
O233        O  0.98302597  0.43518166  0.60260862    -0.61100
O234        O  0.88874937  0.43443637  0.52819261    -0.69500
O235        O  0.91614381  0.48362258  0.51713697    -0.69100
O236        O  0.95992514  0.48778001  0.60898779    -0.60300
O237        O  0.98461732  0.48431241  0.54224493    -0.72800
O238        O  0.89286280  0.48726910  0.58653972    -0.71600
Cu239      Cu  0.93639462  0.42975237  0.56491274     1.04600
Cu240      Cu  0.93826695  0.48641578  0.56358190     1.04300
C241        C  0.88308988  0.46654704  0.61133014     0.94700
C242        C  0.99266850  0.46346255  0.51724152     0.93800
C243        C  0.98355595  0.46620036  0.61909581     0.86000
C244        C  0.88971455  0.46420031  0.50982518     0.92200
O245        O  0.80917512  0.51820579  0.60333740    -0.71500
O246        O  0.80874343  0.61180888  0.52808990    -0.72500
O247        O  0.80807991  0.52663848  0.51836278    -0.61100
O248        O  0.80953078  0.60228468  0.61180276    -0.69500
O249        O  0.86081514  0.60923321  0.58625422    -0.69100
O250        O  0.85876814  0.51663702  0.54346117    -0.60300
O251        O  0.85813913  0.58461769  0.51748823    -0.72800
O252        O  0.86130526  0.54213693  0.61003827    -0.71600
Cu253      Cu  0.80388646  0.56465294  0.56542796     1.04600
Cu254      Cu  0.86045290  0.56325507  0.56421970     1.04300
C255        C  0.84004188  0.51808716  0.61992520     0.94700
C256        C  0.83854161  0.61075979  0.50976816     0.93800
C257        C  0.83792045  0.50825403  0.51864617     0.86000
C258        C  0.84023313  0.61904135  0.61109509     0.92200
C259        C  0.01400670  0.48706593  0.64115439    -0.01000
C260        C  0.01499662  0.63997203  0.48674760    -0.01000
C261        C  0.01497329  0.64054884  0.64016876    -0.01000
C262        C  0.01437854  0.48510652  0.48664862    -0.01000
O263        O  0.06632143  0.52577914  0.61102570    -0.71500
O264        O  0.06666525  0.60022015  0.51655379    -0.72500
O265        O  0.06673268  0.60989445  0.60116207    -0.61100
O266        O  0.06640408  0.51512441  0.52652704    -0.69500
O267        O  0.01633784  0.54136057  0.51689022    -0.69100
O268        O  0.01512028  0.58547692  0.60918069    -0.60300
O269        O  0.01586611  0.60956353  0.54192284    -0.72800
O270        O  0.01538255  0.51764167  0.58549713    -0.71600
Cu271      Cu  0.07151711  0.56275920  0.56377417     1.04600
Cu272      Cu  0.01502123  0.56343648  0.56334391     1.04300
C273        C  0.03578155  0.50868434  0.61068898     0.94700
C274        C  0.03659196  0.61820068  0.51700214     0.93800
C275        C  0.03618791  0.61002111  0.61835502     0.86000
C276        C  0.03633415  0.51564727  0.50858488     0.92200
C277        C  0.18834199  0.31085128  0.31390336    -0.01000
C278        C  0.68691940  0.31499038  0.31342625    -0.01000
C279        C  0.18594155  0.81430529  0.31287585    -0.01000
C280        C  0.18558291  0.31294305  0.81207911    -0.01000
C281        C  0.68814021  0.31488328  0.81263352    -0.01000
C282        C  0.68766484  0.81298365  0.31424627    -0.01000
C283        C  0.18508290  0.81307709  0.81417446    -0.01000
C284        C  0.01546405  0.13967009  0.13927986    -0.01000
C285        C  0.01259721  0.14059267  0.98567908    -0.01000
C286        C  0.86139289  0.14002409  0.14254505    -0.01000
C287        C  0.01527178  0.98604373  0.13781298    -0.01000
C288        C  0.86119284  0.98580653  0.14142981    -0.01000
O289        O  0.97761865  0.01662231  0.19040645    -0.71500
O290        O  0.90149947  0.10910547  0.19332457    -0.72500
O291        O  0.89314978  0.02447995  0.19268469    -0.61100
O292        O  0.98560793  0.10055837  0.19118291    -0.69500
O293        O  0.96076013  0.10792464  0.13949861    -0.69100
O294        O  0.91583231  0.01718395  0.14002123    -0.60300
O295        O  0.89241732  0.08505041  0.14162066    -0.72800
O296        O  0.98317578  0.04026441  0.13785136    -0.71600
Cu297      Cu  0.93956655  0.06260797  0.19668726     1.04600
Cu298      Cu  0.93801013  0.06266498  0.13921137     1.04300
C299        C  0.99355802  0.01641177  0.15914361     0.94700
C300        C  0.88363497  0.10936159  0.16318147     0.93800
C301        C  0.89216122  0.00765434  0.16189726     0.86000
C302        C  0.98532107  0.11739105  0.16046547     0.92200
C303        C  0.01210713  0.98704143  0.98422926    -0.01000
O304        O  0.06482979  0.01668581  0.02277261    -0.71500
O305        O  0.06676498  0.11028888  0.09850568    -0.72500
O306        O  0.06680229  0.02563572  0.10752050    -0.61100
O307        O  0.06488216  0.10120391  0.01424239    -0.69500
O308        O  0.01422189  0.10932427  0.04057541    -0.69100
O309        O  0.01583175  0.01648627  0.08251189    -0.60300
O310        O  0.01641022  0.08429167  0.10829414    -0.72800
O311        O  0.01378543  0.04212844  0.01531886    -0.71600
Cu312      Cu  0.07086313  0.06341929  0.06062703     1.04600
Cu313      Cu  0.01438624  0.06307515  0.06173639     1.04300
C314        C  0.03412126  0.01717310  0.00590111     0.94700
C315        C  0.03686497  0.10958648  0.11674467     0.93800
C316        C  0.03664261  0.00780317  0.10732984     0.86000
C317        C  0.03448283  0.11851523  0.01537460     0.92200
C318        C  0.85827389  0.14131905  0.98863633    -0.01000
O319        O  0.98338845  0.14068943  0.08481925    -0.71500
O320        O  0.89032247  0.14125502  0.04308868    -0.72500
O321        O  0.95759208  0.14193870  0.01713616    -0.61100
O322        O  0.91585451  0.14019542  0.11013441    -0.69500
O323        O  0.89139962  0.19194910  0.10325088    -0.69100
O324        O  0.98372288  0.19240712  0.02626000    -0.60300
O325        O  0.89863499  0.19272743  0.01852346    -0.72800
O326        O  0.97582801  0.19176422  0.11061056    -0.71600
Cu327      Cu  0.93684420  0.14035784  0.06378871     1.04600
Cu328      Cu  0.93738284  0.19714195  0.06469432     1.04300
C329        C  0.99311013  0.16134279  0.10956931     0.94700
C330        C  0.88088647  0.16245380  0.01879815     0.93800
C331        C  0.98281871  0.16230167  0.00830515     0.86000
C332        C  0.89153342  0.16117983  0.12003069     0.92200
C333        C  0.85751884  0.98649542  0.98760895    -0.01000
O334        O  0.91356847  0.98580152  0.01702785    -0.71500
O335        O  0.95933566  0.98523022  0.10791359    -0.72500
O336        O  0.98173062  0.98625659  0.03966184    -0.61100
O337        O  0.89069452  0.98501984  0.08537872    -0.69500
O338        O  0.90008905  0.93399702  0.11028720    -0.69100
O339        O  0.97345160  0.93485132  0.01474993    -0.60300
O340        O  0.98440478  0.93420236  0.09879673    -0.72800
O341        O  0.88888012  0.93450141  0.02588894    -0.71600
Cu342      Cu  0.93633332  0.98619933  0.06251894     1.04600
Cu343      Cu  0.93669664  0.92944168  0.06235356     1.04300
C344        C  0.88849777  0.96505354  0.00869115     0.94700
C345        C  0.98449533  0.96459197  0.11626589     0.93800
C346        C  0.99071077  0.96539122  0.01483262     0.86000
C347        C  0.88236006  0.96421922  0.11044718     0.92200
O348        O  0.80885875  0.10075406  0.11357269    -0.71500
O349        O  0.80655987  0.02606153  0.01913827    -0.72500
O350        O  0.80857924  0.01641600  0.10358800    -0.61100
O351        O  0.80696033  0.11115891  0.02921872    -0.69500
O352        O  0.85714450  0.08535059  0.01861896    -0.69100
O353        O  0.86013443  0.04119324  0.11050643    -0.60300
O354        O  0.85826221  0.01739893  0.04284225    -0.72800
O355        O  0.85921954  0.10938142  0.08699051    -0.71600
Cu356      Cu  0.80276971  0.06357763  0.06646631     1.04600
Cu357      Cu  0.85932043  0.06337497  0.06472304     1.04300
C358        C  0.83918070  0.11825029  0.11252656     0.94700
C359        C  0.83683016  0.00842376  0.01859016     0.93800
C360        C  0.83949877  0.01639395  0.12002685     0.86000
C361        C  0.83675729  0.11082960  0.01075995     0.92200
O362        O  0.88802516  0.10249714  0.93613474    -0.71500
O363        O  0.98040368  0.02621885  0.93326040    -0.72500
O364        O  0.89570331  0.01760029  0.93503301    -0.61100
O365        O  0.97243582  0.11033750  0.93447212    -0.69500
O366        O  0.98015938  0.08625925  0.98643515    -0.69100
O367        O  0.88911165  0.04130630  0.98724877    -0.60300
O368        O  0.95719100  0.01821888  0.98553738    -0.72800
O369        O  0.91253940  0.10899534  0.98808311    -0.71600
Cu370      Cu  0.93398799  0.06420865  0.92993344     1.04600
Cu371      Cu  0.93477436  0.06365137  0.98733044     1.04300
C372        C  0.88828490  0.11904166  0.96709687     0.94700
C373        C  0.98120238  0.00908884  0.96381308     0.93800
C374        C  0.87915008  0.01717252  0.96599081     0.86000
C375        C  0.98978897  0.11032703  0.96493747     0.92200
C376        C  0.68639509  0.81198052  0.81385177    -0.01000
C377        C  0.75049183  0.87600344  0.87933398     0.18500
C378        C  0.73606401  0.88964738  0.91174902    -0.10700
C379        C  0.75733662  0.91122736  0.93466228    -0.11500
C380        C  0.79320712  0.91937673  0.92527778     0.20000
C381        C  0.80772937  0.90522619  0.89316092    -0.13500
C382        C  0.78648357  0.88369579  0.87027308    -0.11800
C383        C  0.81494976  0.94302376  0.94777636     0.01000
C384        C  0.83394439  0.96301447  0.96552833    -0.31800
C385        C  0.72846033  0.85409632  0.85548946     0.02400
C386        C  0.70973865  0.83542047  0.83612383    -0.33500
H387        H  0.70833295  0.88379164  0.91918646     0.13400
H388        H  0.74571510  0.92184452  0.95942928     0.13200
H389        H  0.83540114  0.91118329  0.88559714     0.13100
H390        H  0.79806488  0.87323796  0.84542361     0.12100
C391        C  0.07715232  0.92268417  0.92076996     0.18500
C392        C  0.09106881  0.93469354  0.88755778    -0.10700
C393        C  0.11205527  0.91147813  0.86622343    -0.11500
C394        C  0.11930478  0.87618376  0.87799972     0.20000
C395        C  0.10576795  0.86430602  0.91141333    -0.13500
C396        C  0.08478154  0.88752877  0.93275675    -0.11800
C397        C  0.14120162  0.85260861  0.85599328     0.01000
C398        C  0.16056897  0.83424954  0.83714509    -0.31800
C399        C  0.05432801  0.94595020  0.94220256     0.02400
C400        C  0.03488685  0.96457155  0.96070684    -0.33500
H401        H  0.08546739  0.96184177  0.87803851     0.13400
H402        H  0.12256892  0.92100211  0.84053613     0.13200
H403        H  0.11136458  0.83714692  0.92091152     0.13100
H404        H  0.07426211  0.87799975  0.95843730     0.12100
C405        C  0.75064748  0.88092421  0.25160085     0.18500
C406        C  0.77726833  0.86486396  0.22987363    -0.10700
C407        C  0.79970250  0.88626852  0.20807863    -0.11500
C408        C  0.79576775  0.92397552  0.20773451     0.20000
C409        C  0.76910590  0.94015259  0.22944284    -0.13500
C410        C  0.74661321  0.91869256  0.25130275    -0.11800
C411        C  0.81893964  0.94577366  0.18487287     0.01000
C412        C  0.83832026  0.96351081  0.16529418    -0.31800
C413        C  0.72779218  0.85841267  0.27409300     0.02400
C414        C  0.70949715  0.83826022  0.29238145    -0.33500
H415        H  0.78070002  0.83576258  0.22979437     0.13400
H416        H  0.82012365  0.87337542  0.19143981     0.13200
H417        H  0.76569539  0.96926540  0.22944014     0.13100
H418        H  0.72614673  0.93152051  0.26793449     0.12100
C419        C  0.79596846  0.20516986  0.92101662     0.18500
C420        C  0.81092861  0.23572081  0.90409759    -0.10700
C421        C  0.78953306  0.25776563  0.88179927    -0.11500
C422        C  0.75293918  0.24942357  0.87617712     0.20000
C423        C  0.73815670  0.21858973  0.89265325    -0.13500
C424        C  0.75953057  0.19656768  0.91492966    -0.11800
C425        C  0.73045507  0.27258214  0.85393464     0.01000
C426        C  0.71128449  0.29174558  0.83549380    -0.31800
C427        C  0.81767891  0.18300126  0.94502480     0.02400
C428        C  0.83569756  0.16439617  0.96513127    -0.33500
H429        H  0.83908036  0.24270522  0.90839715     0.13400
H430        H  0.80141518  0.28138941  0.86921002     0.13200
H431        H  0.70996102  0.21169271  0.88850518     0.13100
H432        H  0.74757287  0.17305153  0.92764706     0.12100
C433        C  0.07750362  0.20431415  0.92084555     0.18500
C434        C  0.06581378  0.23916365  0.91157999    -0.10700
C435        C  0.08719047  0.26129352  0.88942470    -0.11500
C436        C  0.12051275  0.24878743  0.87639272     0.20000
C437        C  0.13226337  0.21391915  0.88565979    -0.13500
C438        C  0.11086042  0.19175930  0.90783838    -0.11800
C439        C  0.14275521  0.27180363  0.85387340     0.01000
C440        C  0.16182257  0.29077244  0.83516507    -0.31800
C441        C  0.05502678  0.18156027  0.94339977     0.02400
C442        C  0.03564385  0.16309671  0.96225006    -0.33500
H443        H  0.04012294  0.24921229  0.92144209     0.13400
H444        H  0.07776069  0.28815594  0.88251659     0.13200
H445        H  0.15797272  0.20390050  0.87579327     0.13100
H446        H  0.12027131  0.16489729  0.91477183     0.12100
C447        C  0.07821091  0.92355140  0.20506450     0.18500
C448        C  0.07322084  0.88599675  0.20616965    -0.10700
C449        C  0.09482817  0.86454417  0.22862582    -0.11500
C450        C  0.12163939  0.88051967  0.25019262     0.20000
C451        C  0.12636015  0.91818250  0.24945517    -0.13500
C452        C  0.10471031  0.93967100  0.22696145    -0.11800
C453        C  0.14448104  0.85801504  0.27249736     0.01000
C454        C  0.16329675  0.83834657  0.29064361    -0.31800
C455        C  0.05641050  0.94537534  0.18120005     0.02400
C456        C  0.03799596  0.96345930  0.16121247    -0.33500
H457        H  0.05274354  0.87320946  0.18942638     0.13400
H458        H  0.09084350  0.83555961  0.22897239     0.13200
H459        H  0.14696892  0.93092722  0.26606539     0.13100
H460        H  0.10877045  0.96865260  0.22643284     0.12100
C461        C  0.79890665  0.20823005  0.20571096     0.18500
C462        C  0.76272142  0.21475851  0.19651035    -0.10700
C463        C  0.74113712  0.23704321  0.21839056    -0.11500
C464        C  0.75543703  0.25309947  0.24970981     0.20000
C465        C  0.79185393  0.24713998  0.25857279    -0.13500
C466        C  0.81347301  0.22483492  0.23664907    -0.11800
C467        C  0.73238844  0.27505481  0.27276247     0.01000
C468        C  0.71193674  0.29295083  0.29123859    -0.31800
C469        C  0.82079340  0.18399485  0.18391344     0.02400
C470        C  0.83907937  0.16370695  0.16573053    -0.33500
H471        H  0.75105195  0.20229713  0.17264637     0.13400
H472        H  0.71314105  0.24145420  0.21107612     0.13200
H473        H  0.80343182  0.25940781  0.28257833     0.13100
H474        H  0.84141581  0.22020370  0.24405200     0.12100
C475        C  0.07781914  0.20359591  0.20640319     0.18500
C476        C  0.06322741  0.21841932  0.23822794    -0.10700
C477        C  0.08452566  0.24050404  0.26062864    -0.11500
C478        C  0.12057064  0.24787817  0.25129892     0.20000
C479        C  0.13506781  0.23300611  0.21953001    -0.13500
C480        C  0.11382513  0.21097377  0.19718870    -0.11800
C481        C  0.14292656  0.27049858  0.27410984     0.01000
C482        C  0.16298330  0.28900190  0.29224442    -0.31800
C483        C  0.05601682  0.18106003  0.18297898     0.02400
C484        C  0.03803861  0.16235296  0.16300253    -0.33500
H485        H  0.03539616  0.21295298  0.24569481     0.13400
H486        H  0.07295126  0.25177938  0.28509245     0.13200
H487        H  0.16287949  0.23845764  0.21199475     0.13100
H488        H  0.12544752  0.19974888  0.17272996     0.12100
C489        C  0.08042960  0.42182957  0.42129234     0.18500
C490        C  0.10814625  0.43745856  0.40044030    -0.10700
C491        C  0.13119596  0.41554877  0.37956375    -0.11500
C492        C  0.12679857  0.37781907  0.37928013     0.20000
C493        C  0.09919285  0.36222313  0.40016343    -0.13500
C494        C  0.07617412  0.38409352  0.42099736    -0.11800
C495        C  0.14979306  0.35507199  0.35701025     0.01000
C496        C  0.16774992  0.33534615  0.33786564    -0.31800
C497        C  0.05673457  0.44425844  0.44337509     0.02400
C498        C  0.03724242  0.46255586  0.46256158    -0.33500
H499        H  0.11193200  0.46648838  0.40033017     0.13400
H500        H  0.15235939  0.42808027  0.36351565     0.13200
H501        H  0.09535850  0.33319408  0.40021560     0.13100
H502        H  0.05498870  0.37149586  0.43694583     0.12100
C503        C  0.12227422  0.74947829  0.74783425     0.18500
C504        C  0.09960200  0.72327365  0.76322636    -0.10700
C505        C  0.07715112  0.70229799  0.74113063    -0.11500
C506        C  0.07733595  0.70733698  0.70352775     0.20000
C507        C  0.09963361  0.73388764  0.68813074    -0.13500
C508        C  0.12209803  0.75489753  0.71025311    -0.11800
C509        C  0.05556897  0.68435263  0.68083832     0.01000
C510        C  0.03756309  0.66430998  0.66243265    -0.31800
C511        C  0.14523839  0.77113920  0.77067845     0.02400
C512        C  0.16365929  0.78981362  0.79015465    -0.33500
H513        H  0.09937708  0.71897984  0.79226328     0.13400
H514        H  0.05995920  0.68190056  0.75330381     0.13200
H515        H  0.09993147  0.73806511  0.65907691     0.13100
H516        H  0.13938431  0.77522252  0.69809040     0.12100
C517        C  0.07896641  0.70445740  0.42170860     0.18500
C518        C  0.10581699  0.68912907  0.39970588    -0.10700
C519        C  0.12702956  0.71116144  0.37724732    -0.11500
C520        C  0.12160298  0.74871664  0.37663386     0.20000
C521        C  0.09485240  0.76406243  0.39876365    -0.13500
C522        C  0.07363918  0.74202763  0.42122281    -0.11800
C523        C  0.14372032  0.77149982  0.35370663     0.01000
C524        C  0.16260318  0.79071975  0.33503423    -0.31800
C525        C  0.05667260  0.68164724  0.44440268     0.02400
C526        C  0.03784435  0.66264574  0.46328583    -0.33500
H527        H  0.11027547  0.66015765  0.39982738     0.13400
H528        H  0.14765197  0.69891742  0.36038219     0.13200
H529        H  0.09040507  0.79303407  0.39866228     0.13100
H530        H  0.05302668  0.75426936  0.43810932     0.12100
C531        C  0.12223882  0.37702191  0.74658321     0.18500
C532        C  0.10294566  0.36213213  0.71747465    -0.10700
C533        C  0.08045100  0.38409609  0.69639864    -0.11500
C534        C  0.07719270  0.42105544  0.70431581     0.20000
C535        C  0.09644824  0.43592560  0.73340721    -0.13500
C536        C  0.11892787  0.41398371  0.75446293    -0.11800
C537        C  0.05463541  0.44390189  0.68232891     0.01000
C538        C  0.03628068  0.46346816  0.66382337    -0.31800
C539        C  0.14489312  0.35434616  0.76878002     0.02400
C540        C  0.16340749  0.33554623  0.78805195    -0.33500
H541        H  0.10523120  0.33359104  0.71114842     0.13400
H542        H  0.06570266  0.37231195  0.67393871     0.13200
H543        H  0.09414816  0.46446848  0.73974472     0.13100
H544        H  0.13364567  0.42580511  0.77691692     0.12100
C545        C  0.79624308  0.70769442  0.70251345     0.18500
C546        C  0.81065616  0.72699593  0.73185033    -0.10700
C547        C  0.78808840  0.74804199  0.75387018    -0.11500
C548        C  0.75093266  0.75003030  0.74672313     0.20000
C549        C  0.73657049  0.73108397  0.71707264    -0.13500
C550        C  0.75916331  0.71001287  0.69503273    -0.11800
C551        C  0.72769822  0.77137861  0.76991661     0.01000
C552        C  0.70885716  0.78951240  0.78969060    -0.31800
C553        C  0.81933056  0.68476809  0.68085162     0.02400
C554        C  0.83861782  0.66512424  0.66319579    -0.33500
H555        H  0.83924192  0.72548092  0.73791674     0.13400
H556        H  0.79959104  0.76259014  0.77662613     0.13200
H557        H  0.70794811  0.73241444  0.71115151     0.13100
H558        H  0.74766390  0.69525386  0.67240517     0.12100
C559        C  0.75354922  0.74901008  0.37785941     0.18500
C560        C  0.76742756  0.71621618  0.36474270    -0.10700
C561        C  0.78902051  0.69441464  0.38696991    -0.11500
C562        C  0.79695047  0.70521806  0.42251361     0.20000
C563        C  0.78303979  0.73799175  0.43568269    -0.13500
C564        C  0.76143377  0.75980476  0.41344428    -0.11800
C565        C  0.81937893  0.68273605  0.44532317     0.01000
C566        C  0.83812283  0.66383780  0.46432489    -0.31800
C567        C  0.73100382  0.77134320  0.35497289     0.02400
C568        C  0.71172062  0.78998187  0.33618151    -0.33500
H569        H  0.76152532  0.70747654  0.33734635     0.13400
H570        H  0.79954104  0.66915841  0.37643638     0.13200
H571        H  0.78890239  0.74668497  0.46310292     0.13100
H572        H  0.75086004  0.78502900  0.42399510     0.12100
C573        C  0.79452880  0.42448347  0.42173021     0.18500
C574        C  0.75946783  0.43609503  0.41320407    -0.10700
C575        C  0.73700468  0.41457195  0.39145549    -0.11500
C576        C  0.74944977  0.38128663  0.37809143     0.20000
C577        C  0.78459580  0.36985457  0.38639694    -0.13500
C578        C  0.80703041  0.39135170  0.40812214    -0.11800
C579        C  0.72638513  0.35870143  0.35596259     0.01000
C580        C  0.70813032  0.33905661  0.33712746    -0.31800
C581        C  0.81745633  0.44626356  0.44477627     0.02400
C582        C  0.83647218  0.46434019  0.46435634    -0.33500
H583        H  0.74946353  0.46164444  0.42350283     0.13400
H584        H  0.70992872  0.42381207  0.38519655     0.13200
H585        H  0.79459230  0.34426329  0.37619884     0.13100
H586        H  0.83406638  0.38203727  0.41445426     0.12100
C587        C  0.75242098  0.37838795  0.74744829     0.18500
C588        C  0.74168367  0.41376350  0.73908618    -0.10700
C589        C  0.76382962  0.43581706  0.71772060    -0.11500
C590        C  0.79680643  0.42259319  0.70460161     0.20000
C591        C  0.80753128  0.38719135  0.71285396    -0.13500
C592        C  0.78537434  0.36512773  0.73423059    -0.11800
C593        C  0.81952960  0.44538647  0.68269940     0.01000
C594        C  0.83831507  0.46468415  0.66430565    -0.31800
C595        C  0.72987275  0.35589978  0.76994677     0.02400
C596        C  0.71108680  0.33728198  0.78915291    -0.33500
H597        H  0.71627805  0.42432026  0.74917626     0.13400
H598        H  0.75529445  0.46314141  0.71148498     0.13200
H599        H  0.83298821  0.37669574  0.70283185     0.13100
H600        H  0.79396099  0.33783744  0.74054629     0.12100
C601        C  0.61795028  0.87388537  0.75103281     0.18500
C602        C  0.61125977  0.86326654  0.71517056    -0.10700
C603        C  0.59017412  0.88502908  0.69238040    -0.11500
C604        C  0.57553221  0.91760180  0.70529049     0.20000
C605        C  0.58174033  0.92789490  0.74134909    -0.13500
C606        C  0.60283414  0.90613956  0.76412991    -0.11800
C607        C  0.55437721  0.94061244  0.68166861     0.01000
C608        C  0.53644448  0.96030705  0.66259812    -0.31800
C609        C  0.64132647  0.85234631  0.77381665     0.02400
C610        C  0.66168608  0.83433583  0.79204538    -0.33500
H611        H  0.62272695  0.83839284  0.70468979     0.13400
H612        H  0.58555850  0.87661105  0.66464719     0.13200
H613        H  0.57053091  0.95290389  0.75176193     0.13100
H614        H  0.60771496  0.91469793  0.79177875     0.12100
C615        C  0.29266689  0.92467156  0.70705668     0.18500
C616        C  0.25605103  0.91981686  0.69823792    -0.10700
C617        C  0.23362177  0.89850075  0.72036433    -0.11500
C618        C  0.24757055  0.88184028  0.75152683     0.20000
C619        C  0.28396342  0.88723204  0.76064456    -0.13500
C620        C  0.30635633  0.90849765  0.73855138    -0.11800
C621        C  0.22516861  0.85835668  0.77363168     0.01000
C622        C  0.20732461  0.83793502  0.79214288    -0.31800
C623        C  0.31626763  0.94576385  0.68368294     0.02400
C624        C  0.33605490  0.96341751  0.66425847    -0.33500
H625        H  0.24496221  0.93218055  0.67412074     0.13400
H626        H  0.20552574  0.89468023  0.71291930     0.13200
H627        H  0.29514260  0.87463559  0.78459669     0.13100
H628        H  0.33451134  0.91202308  0.74588274     0.12100
C629        C  0.29374754  0.92248438  0.42271244     0.18500
C630        C  0.30924186  0.90145223  0.39514218    -0.10700
C631        C  0.28753682  0.87923349  0.37333763    -0.11500
C632        C  0.25006744  0.87781193  0.37890780     0.20000
C633        C  0.23451794  0.89877826  0.40650729    -0.13500
C634        C  0.25624231  0.92101941  0.42833453    -0.11800
C635        C  0.22766450  0.85512408  0.35614661     0.01000
C636        C  0.20891461  0.83646102  0.33678975    -0.31800
C637        C  0.31637530  0.94548291  0.44505691     0.02400
C638        C  0.33579841  0.96445435  0.46347697    -0.33500
H639        H  0.33816477  0.90226432  0.39044692     0.13400
H640        H  0.29994465  0.86324768  0.35213168     0.13200
H641        H  0.20557640  0.89799144  0.41111885     0.13100
H642        H  0.24382833  0.93705915  0.44948858     0.12100
C643        C  0.62333246  0.87412320  0.38212332     0.18500
C644        C  0.59723815  0.85889636  0.40515421    -0.10700
C645        C  0.57551382  0.88129911  0.42679499    -0.11500
C646        C  0.57967896  0.91902694  0.42552871     0.20000
C647        C  0.60624570  0.93412768  0.40302774    -0.13500
C648        C  0.62792993  0.91176552  0.38142950    -0.11800
C649        C  0.55624225  0.94235112  0.44650507     0.01000
C650        C  0.53665654  0.96210965  0.46378889    -0.31800
C651        C  0.64509246  0.85145384  0.35878074     0.02400
C652        C  0.66391153  0.83372203  0.33865082    -0.33500
H653        H  0.59345626  0.82987166  0.40609498     0.13400
H654        H  0.55516782  0.86921494  0.44418019     0.13200
H655        H  0.60988446  0.96315679  0.40184839     0.13100
H656        H  0.64808477  0.92390477  0.36385494     0.12100
C657        C  0.29504028  0.20119958  0.42219883     0.18500
C658        C  0.30062547  0.20127321  0.38462933    -0.10700
C659        C  0.27854464  0.22224737  0.36210411    -0.11500
C660        C  0.25071641  0.24326280  0.37706654     0.20000
C661        C  0.24471230  0.24257008  0.41455979    -0.13500
C662        C  0.26677902  0.22161919  0.43706117    -0.11800
C663        C  0.22899988  0.26636177  0.35425613     0.01000
C664        C  0.21083389  0.28645174  0.33590883    -0.31800
C665        C  0.31861485  0.18074193  0.44555416     0.02400
C666        C  0.33834212  0.16348520  0.46499610    -0.33500
H667        H  0.32232455  0.18546256  0.37279295     0.13400
H668        H  0.28344337  0.22245151  0.33319735     0.13200
H669        H  0.22324590  0.25862276  0.42647127     0.13100
H670        H  0.26209573  0.22168266  0.46601202     0.12100
C671        C  0.29360590  0.20110180  0.70653850     0.18500
C672        C  0.28668360  0.19189755  0.74277335    -0.10700
C673        C  0.26431967  0.21387201  0.76419806    -0.11500
C674        C  0.24870854  0.24518856  0.74953439     0.20000
C675        C  0.25509540  0.25397317  0.71315355    -0.13500
C676        C  0.27741850  0.23203305  0.69176357    -0.11800
C677        C  0.22673482  0.26870214  0.77180780     0.01000
C678        C  0.20843999  0.28882701  0.79007102    -0.31800
C679        C  0.31781492  0.17943908  0.68463468     0.02400
C680        C  0.33801858  0.16191820  0.66569363    -0.33500
H681        H  0.29887848  0.16800893  0.75455968     0.13400
H682        H  0.25952777  0.20666991  0.79224218     0.13200
H683        H  0.24313315  0.27800343  0.70142127     0.13100
H684        H  0.28239111  0.23942832  0.66380453     0.10500
C685        C  0.62033719  0.25031060  0.37628264     0.18500
C686        C  0.60903834  0.21614726  0.36411654    -0.10700
C687        C  0.58737846  0.19408388  0.38620750    -0.11500
C688        C  0.57677723  0.20599325  0.42074632     0.20000
C689        C  0.58746320  0.24046272  0.43259415    -0.13500
C690        C  0.60911860  0.26251754  0.41050935    -0.11800
C691        C  0.55550124  0.18271165  0.44417820     0.01000
C692        C  0.53768891  0.16336120  0.46383562    -0.31800
C693        C  0.64391984  0.27250979  0.35406974     0.02400
C694        C  0.66370499  0.29125689  0.33574563    -0.33500
H695        H  0.61732007  0.20635319  0.33766199     0.13400
H696        H  0.57925024  0.16766037  0.37654371     0.13200
H697        H  0.57937201  0.25017639  0.45913466     0.13100
H698        H  0.61743163  0.28885305  0.42026778     0.12100
C699        C  0.62524742  0.24924248  0.74735607     0.18500
C700        C  0.62946868  0.21158014  0.74947683    -0.10700
C701        C  0.60831752  0.18860245  0.72786404    -0.11500
C702        C  0.58272228  0.20311875  0.70391311     0.20000
C703        C  0.57894963  0.24079739  0.70136718    -0.13500
C704        C  0.60008265  0.26376227  0.72298042    -0.11800
C705        C  0.55975283  0.17958606  0.68252932     0.01000
C706        C  0.53984048  0.16082536  0.66444398    -0.31800
C707        C  0.64649707  0.27281657  0.77037823     0.02400
C708        C  0.66476479  0.29198016  0.78974991    -0.33500
H709        H  0.64890866  0.19995745  0.76807501     0.13400
H710        H  0.61166690  0.15958381  0.73009746     0.13200
H711        H  0.55938050  0.25243064  0.68291896     0.13100
H712        H  0.59658332  0.29277848  0.72089490     0.12100
C713        C  0.24851767  0.74821923  0.87917737     0.18500
C714        C  0.23465438  0.71622763  0.89429098    -0.10700
C715        C  0.25690540  0.69391152  0.91540793    -0.11500
C716        C  0.29310282  0.70346993  0.92157142     0.20000
C717        C  0.30682115  0.73547256  0.90652848    -0.13500
C718        C  0.28462436  0.75773898  0.88547624    -0.11800
C719        C  0.31620098  0.68086488  0.94355378     0.01000
C720        C  0.33589700  0.66259080  0.96219195    -0.31800
C721        C  0.22615403  0.77104986  0.85668274     0.02400
C722        C  0.20805449  0.79029675  0.83737632    -0.33500
H723        H  0.20680450  0.70850272  0.88964906     0.13400
H724        H  0.24590365  0.66925552  0.92690618     0.13200
H725        H  0.33467782  0.74321912  0.91108137     0.13100
H726        H  0.29569257  0.78235220  0.87396418     0.12100
C727        C  0.62283912  0.74891840  0.88027633     0.18500
C728        C  0.63612539  0.73314357  0.91211667    -0.10700
C729        C  0.61345626  0.71173443  0.93366727    -0.11500
C730        C  0.57740761  0.70598309  0.92352458     0.20000
C731        C  0.56400284  0.72213037  0.89193241    -0.13500
C732        C  0.58666209  0.74353632  0.87039097    -0.11800
C733        C  0.55440746  0.68313042  0.94524454     0.01000
C734        C  0.53549050  0.66379785  0.96357339    -0.31800
C735        C  0.64624190  0.77034911  0.85752961     0.02400
C736        C  0.66492304  0.78864163  0.83786901    -0.33500
H737        H  0.66398492  0.73718039  0.92012122     0.13400
H738        H  0.62410238  0.69945226  0.95808529     0.13200
H739        H  0.53618247  0.71796504  0.88383869     0.13100
H740        H  0.57604495  0.75568611  0.84589335     0.12100
C741        C  0.58021247  0.42434815  0.92139691     0.18500
C742        C  0.56627505  0.40808525  0.89000620    -0.10700
C743        C  0.58859043  0.38694868  0.86773636    -0.11500
C744        C  0.62505991  0.38176978  0.87659409     0.20000
C745        C  0.63917180  0.39839414  0.90774045    -0.13500
C746        C  0.61683382  0.41956216  0.93003787    -0.11800
C747        C  0.64757407  0.35866024  0.85427674     0.01000
C748        C  0.66583429  0.33876095  0.83563365    -0.31800
C749        C  0.55688973  0.44581647  0.94458164     0.02400
C750        C  0.53716116  0.46394089  0.96354630    -0.33500
H751        H  0.53813849  0.41156931  0.88286663     0.13400
H752        H  0.57727095  0.37433672  0.84373810     0.13200
H753        H  0.66727532  0.39472456  0.91495067     0.13100
H754        H  0.62808870  0.43202149  0.95413399     0.12100
C755        C  0.24922769  0.37845829  0.87682944     0.18500
C756        C  0.26057191  0.41274673  0.86513402    -0.10700
C757        C  0.28250646  0.43434151  0.88739132    -0.11500
C758        C  0.29333475  0.42181585  0.92159371     0.20000
C759        C  0.28175106  0.38763459  0.93337410    -0.13500
C760        C  0.25982048  0.36604619  0.91112599    -0.11800
C761        C  0.31653714  0.44391741  0.94427825     0.01000
C762        C  0.33598571  0.46274634  0.96283380    -0.31800
C763        C  0.22698043  0.35584924  0.85376399     0.02400
C764        C  0.20842646  0.33645937  0.83488884    -0.33500
H765        H  0.25257783  0.42277986  0.83869386     0.13400
H766        H  0.29114171  0.46063866  0.87790815     0.13200
H767        H  0.28982284  0.37753750  0.95976937     0.13100
H768        H  0.25126797  0.33970723  0.92055946     0.12100
C769        C  0.25206946  0.37333042  0.24623875     0.18500
C770        C  0.23561061  0.39508982  0.21985049    -0.10700
C771        C  0.25660346  0.41794998  0.19794078    -0.11500
C772        C  0.29426571  0.41928565  0.20221611     0.20000
C773        C  0.31072521  0.39727663  0.22837900    -0.13500
C774        C  0.28974333  0.37443296  0.25027851    -0.11800
C775        C  0.31605804  0.44337120  0.18017431     0.01000
C776        C  0.33489317  0.46328184  0.16213628    -0.31800
C777        C  0.23026149  0.35057938  0.26961110     0.02400
C778        C  0.21159688  0.33233273  0.28950975    -0.33500
H779        H  0.20655193  0.39458100  0.21639925     0.13400
H780        H  0.24343462  0.43473774  0.17784007     0.13200
H781        H  0.33975383  0.39794815  0.23200789     0.13100
H782        H  0.30289471  0.35783004  0.27054093     0.12100
C783        C  0.57810900  0.70523922  0.20529814     0.18500
C784        C  0.61329052  0.71351787  0.19369269    -0.10700
C785        C  0.63587851  0.73539959  0.21501922    -0.11500
C786        C  0.62351057  0.74919076  0.24822047     0.20000
C787        C  0.58834394  0.74094099  0.25980831    -0.13500
C788        C  0.56576853  0.71906945  0.23849481    -0.11800
C789        C  0.64677729  0.77152008  0.27057677     0.01000
C790        C  0.66551489  0.79014739  0.29005307    -0.31800
C791        C  0.55469472  0.68285801  0.18305761     0.02400
C792        C  0.53535858  0.66427376  0.16410747    -0.33500
H793        H  0.62325733  0.70308312  0.16812391     0.13400
H794        H  0.66295059  0.74150081  0.20564941     0.13200
H795        H  0.57837723  0.75138180  0.28537570     0.13100
H796        H  0.53870296  0.71298837  0.24788797     0.12100
C797        C  0.57615807  0.42291980  0.20653209     0.18500
C798        C  0.59121923  0.43643767  0.23871285    -0.10700
C799        C  0.61339579  0.41437386  0.26018630    -0.11500
C800        C  0.62072947  0.37861603  0.24965854     0.20000
C801        C  0.60533694  0.36501830  0.21771861    -0.13500
C802        C  0.58318550  0.38705735  0.19627247    -0.11800
C803        C  0.64421998  0.35601036  0.27135306     0.01000
C804        C  0.66378227  0.33724997  0.28975921    -0.31800
C805        C  0.55381037  0.44573487  0.18383270     0.02400
C806        C  0.53514978  0.46441579  0.16444531    -0.33500
H807        H  0.58599817  0.46405328  0.24709028     0.13400
H808        H  0.62498866  0.42525678  0.28484859     0.13200
H809        H  0.61063507  0.33745015  0.20926726     0.13100
H810        H  0.57169998  0.37617874  0.17156021     0.12100
C811        C  0.25146667  0.75080026  0.24816087     0.18500
C812        C  0.27263081  0.72364077  0.26408480    -0.10700
C813        C  0.29458654  0.70145357  0.24248456    -0.11500
C814        C  0.29553447  0.70624560  0.20479824     0.20000
C815        C  0.27469099  0.73364471  0.18895418    -0.13500
C816        C  0.25275144  0.75580880  0.21053168    -0.11800
C817        C  0.31747994  0.68297564  0.18224488     0.01000
C818        C  0.33566633  0.66384538  0.16287579    -0.31800
C819        C  0.22829026  0.77327097  0.27035087     0.02400
C820        C  0.20898829  0.79187342  0.28922969    -0.33500
H821        H  0.27199764  0.71949991  0.29311446     0.13400
H822        H  0.31062931  0.68044432  0.25514472     0.13200
H823        H  0.27522871  0.73771943  0.15991228     0.13100
H824        H  0.23663421  0.77672382  0.19783037     0.12100
loop_ 
_geom_bond_atom_site_label_1 
_geom_bond_atom_site_label_2 
_geom_bond_distance 
_geom_bond_site_symmetry_2 
_ccdc_geom_bond_type 
C1           C17   1.594       .  S
C1           C35   1.595       .  S
C1           C48   1.594       .  S
C1          C818   1.471       .  S
C2           C18   1.596       .  S
C2           C61   1.599       .  S
C2           C77   1.596       .  S
C2          C806   1.475       .  S
C3           C15   1.596       .  S
C3           C50   1.600       .  S
C3           C64   1.597       .  S
C3          C792   1.478       .  S
C4           C16   1.601       .  S
C4           C34   1.593       .  S
C4           C76   1.595       .  S
C4          C776   1.476       .  S
O5          Cu13   1.881       .  S
O5           C15   1.242       .  A
O6          Cu13   1.892       .  S
O6           C16   1.243       .  A
O7          Cu13   1.879       .  S
O7           C17   1.243       .  A
O8          Cu13   1.882       .  S
O8           C18   1.241       .  A
O9          Cu14   2.232       .  S
O9           C18   1.296       .  A
O10         Cu14   2.223       .  S
O10          C17   1.295       .  A
O11         Cu14   2.233       .  S
O11          C16   1.295       .  A
O12         Cu14   2.232       .  S
O12          C15   1.296       .  A
Cu13        Cu14   2.097       .  S
C19          C36   1.598   1_556  S
C19          C78   1.595   1_556  S
C19          C89   1.597       .  S
C19         C762   1.477       .  S
C20          C63   1.595   1_556  S
C20          C75   1.598   1_556  S
C20          C91   1.598       .  S
C20         C750   1.477       .  S
C21          C47   1.591   1_556  S
C21          C62   1.593   1_556  S
C21          C90   1.596       .  S
C21         C734   1.467       .  S
C22          C33   1.591   1_556  S
C22          C49   1.599   1_556  S
C22          C92   1.594       .  S
C22         C720   1.472       .  S
O23         Cu31   2.219       .  S
O23          C33   1.295       .  A
O24         Cu31   2.227       .  S
O24          C34   1.295       .  A
O25         Cu31   2.230       .  S
O25          C35   1.296       .  A
O26         Cu31   2.227       .  S
O26          C36   1.295       .  A
O27         Cu32   1.885       .  S
O27          C36   1.243       .  A
O28         Cu32   1.876       .  S
O28          C35   1.243       .  A
O29         Cu32   1.879       .  S
O29          C34   1.241       .  A
O30         Cu32   1.874       .  S
O30          C33   1.244       .  A
Cu31        Cu32   2.109       .  S
O37         Cu45   1.875       .  S
O37          C47   1.241       .  A
O38         Cu45   1.882       .  S
O38          C48   1.241       .  A
O39         Cu45   1.883       .  S
O39          C49   1.243       .  A
O40         Cu45   1.887       .  S
O40          C50   1.242       .  A
O41         Cu46   2.235       .  S
O41          C50   1.296       .  A
O42         Cu46   2.231       .  S
O42          C49   1.295       .  A
O43         Cu46   2.227       .  S
O43          C48   1.295       .  A
O44         Cu46   2.226       .  S
O44          C47   1.296       .  A
Cu45        Cu46   2.097       .  S
O51         Cu59   1.879       .  S
O51          C61   1.243       .  A
O52         Cu59   1.872       .  S
O52          C62   1.243       .  A
O53         Cu59   1.880       .  S
O53          C63   1.242       .  A
O54         Cu59   1.881       .  S
O54          C64   1.244       .  A
O55         Cu60   2.226       .  S
O55          C64   1.295       .  A
O56         Cu60   2.228       .  S
O56          C63   1.296       .  A
O57         Cu60   2.225       .  S
O57          C62   1.295       .  A
O58         Cu60   2.230       .  S
O58          C61   1.295       .  A
Cu59        Cu60   2.110       .  S
O65         Cu73   1.880       .  S
O65          C75   1.243       .  A
O66         Cu73   1.873       .  S
O66          C76   1.243       .  A
O67         Cu73   1.879       .  S
O67          C77   1.243       .  A
O68         Cu73   1.881       .  S
O68          C78   1.244       .  A
O69         Cu74   2.224       .  S
O69          C78   1.295       .  A
O70         Cu74   2.230       .  S
O70          C77   1.296       .  A
O71         Cu74   2.226       .  S
O71          C76   1.295       .  A
O72         Cu74   2.229       .  S
O72          C75   1.295       .  A
Cu73        Cu74   2.114       .  S
O79         Cu87   2.235       .  S
O79          C89   1.296       .  A
O80         Cu87   2.228       .  S
O80          C90   1.295       .  A
O81         Cu87   2.230       .  S
O81          C91   1.295       .  A
O82         Cu87   2.230       .  S
O82          C92   1.296       .  A
O83         Cu88   1.881       .  S
O83          C92   1.241       .  A
O84         Cu88   1.892       .  S
O84          C91   1.243       .  A
O85         Cu88   1.881       .  S
O85          C90   1.243       .  A
O86         Cu88   1.889       .  S
O86          C89   1.241       .  A
Cu87        Cu88   2.093       .  S
C93         C110   1.599       .  S
C93         C125   1.595       .  S
C93         C139   1.596       .  S
C93         C706   1.475       .  S
C94         C107   1.596       .  S
C94         C127   1.597       .  S
C94         C169   1.597       .  S
C94         C692   1.478       .  S
C95         C108   1.601       .  S
C95         C141   1.597       .  S
C95         C154   1.591       .  S
C95         C680   1.474       .  S
C96         C109   1.598       .  S
C96         C155   1.591       .  S
C96         C167   1.590       .  S
C96         C666   1.467       .  S
O97        Cu105   1.884       .  S
O97         C107   1.242       .  A
O98        Cu105   1.893       .  S
O98         C108   1.242       .  A
O99        Cu105   1.886       .  S
O99         C109   1.242       .  A
O100       Cu105   1.885       .  S
O100        C110   1.241       .  A
O101       Cu106   2.237       .  S
O101        C110   1.296       .  A
O102       Cu106   2.231       .  S
O102        C109   1.295       .  A
O103       Cu106   2.237       .  S
O103        C108   1.296       .  A
O104       Cu106   2.230       .  S
O104        C107   1.296       .  A
Cu105      Cu106   2.089       .  S
C111        C126   1.591   1_565  S
C111        C168   1.599   1_565  S
C111        C184   1.595       .  S
C111        C650   1.473       .  S
C112        C153   1.597   1_565  S
C112        C170   1.598   1_565  S
C112        C182   1.593       .  S
C112        C638   1.476       .  S
C113        C140   1.599   1_565  S
C113        C156   1.597   1_565  S
C113        C183   1.598       .  S
C113        C624   1.480       .  S
C114        C128   1.598   1_565  S
C114        C142   1.596   1_565  S
C114        C181   1.595       .  S
C114        C608   1.476       .  S
O115       Cu123   2.222       .  S
O115        C125   1.295       .  A
O116       Cu123   2.225       .  S
O116        C126   1.295       .  A
O117       Cu123   2.231       .  S
O117        C127   1.296       .  A
O118       Cu123   2.231       .  S
O118        C128   1.295       .  A
O119       Cu124   1.885       .  S
O119        C128   1.243       .  A
O120       Cu124   1.879       .  S
O120        C127   1.244       .  A
O121       Cu124   1.876       .  S
O121        C126   1.241       .  A
O122       Cu124   1.877       .  S
O122        C125   1.244       .  A
Cu123      Cu124   2.109       .  S
O129       Cu137   1.880       .  S
O129        C139   1.243       .  A
O130       Cu137   1.887       .  S
O130        C140   1.244       .  A
O131       Cu137   1.873       .  S
O131        C141   1.243       .  A
O132       Cu137   1.883       .  S
O132        C142   1.242       .  A
O133       Cu138   2.230       .  S
O133        C142   1.295       .  A
O134       Cu138   2.227       .  S
O134        C141   1.296       .  A
O135       Cu138   2.227       .  S
O135        C140   1.295       .  A
O136       Cu138   2.232       .  S
O136        C139   1.296       .  A
Cu137      Cu138   2.108       .  S
O143       Cu151   2.222       .  S
O143        C153   1.294       .  A
O144       Cu151   2.227       .  S
O144        C154   1.296       .  A
O145       Cu151   2.220       .  S
O145        C155   1.295       .  A
O146       Cu151   2.230       .  S
O146        C156   1.295       .  A
O147       Cu152   1.883       .  S
O147        C156   1.241       .  A
O148       Cu152   1.868       .  S
O148        C155   1.243       .  A
O149       Cu152   1.872       .  S
O149        C154   1.241       .  A
O150       Cu152   1.883       .  S
O150        C153   1.244       .  A
Cu151      Cu152   2.110       .  S
O157       Cu165   1.876       .  S
O157        C167   1.241       .  A
O158       Cu165   1.891       .  S
O158        C168   1.243       .  A
O159       Cu165   1.885       .  S
O159        C169   1.244       .  A
O160       Cu165   1.889       .  S
O160        C170   1.241       .  A
O161       Cu166   2.236       .  S
O161        C170   1.296       .  A
O162       Cu166   2.226       .  S
O162        C169   1.295       .  A
O163       Cu166   2.232       .  S
O163        C168   1.295       .  A
O164       Cu166   2.227       .  S
O164        C167   1.296       .  A
Cu165      Cu166   2.094       .  S
O171       Cu179   1.882       .  S
O171        C181   1.243       .  A
O172       Cu179   1.876       .  S
O172        C182   1.243       .  A
O173       Cu179   1.883       .  S
O173        C183   1.243       .  A
O174       Cu179   1.875       .  S
O174        C184   1.243       .  A
O175       Cu180   2.224       .  S
O175        C184   1.295       .  A
O176       Cu180   2.232       .  S
O176        C183   1.295       .  A
O177       Cu180   2.227       .  S
O177        C182   1.296       .  A
O178       Cu180   2.224       .  S
O178        C181   1.295       .  A
Cu179      Cu180   2.112       .  S
C185        C213   1.593       .  S
C185        C241   1.594       .  S
C185        C255   1.586       .  S
C185        C594   1.463       .  S
C186        C227   1.591       .  S
C186        C244   1.605       .  S
C186        C257   1.591       .  S
C186        C582   1.471       .  S
C187        C199   1.589       .  S
C187        C230   1.593       .  S
C187        C256   1.602       .  S
C187        C566   1.472       .  S
C188        C201   1.588       .  S
C188        C216   1.595       .  S
C188        C258   1.594       .  S
C188        C554   1.469       .  S
O189       Cu197   1.878       .  S
O189        C199   1.238       .  A
O190       Cu197   1.875       .  S
O190        C200   1.243       .  A
O191       Cu197   1.868       .  S
O191        C201   1.242       .  A
O192       Cu197   1.892       .  S
O192        C202   1.242       .  A
O193       Cu198   2.228       .  S
O193        C202   1.294       .  A
O194       Cu198   2.222       .  S
O194        C201   1.296       .  A
O195       Cu198   2.212       .  S
O195        C200   1.294       .  A
O196       Cu198   2.230       .  S
O196        C199   1.296       .  A
Cu197      Cu198   2.102       .  S
C200        C261   1.589   1_655  S
C202        C260   1.600   1_655  S
O203       Cu211   1.882       .  S
O203        C213   1.239       .  A
O204       Cu211   1.877       .  S
O204        C214   1.241       .  A
O205       Cu211   1.879       .  S
O205        C215   1.240       .  A
O206       Cu211   1.891       .  S
O206        C216   1.242       .  A
O207       Cu212   2.228       .  S
O207        C216   1.294       .  A
O208       Cu212   2.231       .  S
O208        C215   1.296       .  A
O209       Cu212   2.226       .  S
O209        C214   1.295       .  A
O210       Cu212   2.231       .  S
O210        C213   1.295       .  A
Cu211      Cu212   2.087       .  S
C214        C261   1.593   1_655  S
C215        C259   1.593   1_655  S
O217       Cu225   2.219       .  S
O217        C227   1.295       .  A
O218       Cu225   2.222       .  S
O218        C228   1.295       .  A
O219       Cu225   2.228       .  S
O219        C229   1.296       .  A
O220       Cu225   2.217       .  S
O220        C230   1.294       .  A
O221       Cu226   1.870       .  S
O221        C230   1.246       .  A
O222       Cu226   1.867       .  S
O222        C229   1.244       .  A
O223       Cu226   1.867       .  S
O223        C228   1.243       .  A
O224       Cu226   1.860       .  S
O224        C227   1.245       .  A
Cu225      Cu226   2.145       .  S
C228        C260   1.594   1_655  S
C229        C262   1.597   1_655  S
O231       Cu239   2.211       .  S
O231        C241   1.293       .  A
O232       Cu239   2.249       .  S
O232        C242   1.298       .  A
O233       Cu239   2.226       .  S
O233        C243   1.297       .  A
O234       Cu239   2.232       .  S
O234        C244   1.293       .  A
O235       Cu240   1.903       .  S
O235        C244   1.242       .  A
O236       Cu240   1.859       .  S
O236        C243   1.242       .  A
O237       Cu240   1.888       .  S
O237        C242   1.238       .  A
O238       Cu240   1.881       .  S
O238        C241   1.247       .  A
Cu239      Cu240   2.095       .  S
C242        C262   1.600   1_655  S
C243        C259   1.589   1_655  S
O245       Cu253   2.224       .  S
O245        C255   1.296       .  A
O246       Cu253   2.230       .  S
O246        C256   1.294       .  A
O247       Cu253   2.238       .  S
O247        C257   1.297       .  A
O248       Cu253   2.214       .  S
O248        C258   1.293       .  A
O249       Cu254   1.883       .  S
O249        C258   1.245       .  A
O250       Cu254   1.886       .  S
O250        C257   1.237       .  A
O251       Cu254   1.900       .  S
O251        C256   1.242       .  A
O252       Cu254   1.863       .  S
O252        C255   1.241       .  A
Cu253      Cu254   2.094       .  S
C259        C273   1.597       .  S
C259        C538   1.464       .  S
C260        C274   1.593       .  S
C260        C526   1.471       .  S
C261        C275   1.592       .  S
C261        C510   1.464       .  S
C262        C276   1.608       .  S
C262        C498   1.483       .  S
O263       Cu271   2.225       .  S
O263        C273   1.294       .  A
O264       Cu271   2.234       .  S
O264        C274   1.297       .  A
O265       Cu271   2.228       .  S
O265        C275   1.296       .  A
O266       Cu271   2.240       .  S
O266        C276   1.295       .  A
O267       Cu272   1.899       .  S
O267        C276   1.243       .  A
O268       Cu272   1.877       .  S
O268        C275   1.242       .  A
O269       Cu272   1.880       .  S
O269        C274   1.239       .  A
O270       Cu272   1.880       .  S
O270        C273   1.243       .  A
Cu271      Cu272   2.091       .  S
C277        C482   1.473       .  S
C277        C496   1.477       .  S
C277        C664   1.473       .  S
C277        C778   1.476       .  S
C278        C468   1.480       .  S
C278        C580   1.473       .  S
C278        C694   1.478       .  S
C278        C804   1.475       .  S
C279        C454   1.473       .  S
C279        C524   1.474       .  S
C279        C636   1.473       .  S
C279        C820   1.475       .  S
C280        C440   1.473       .  S
C280        C540   1.470       .  S
C280        C678   1.473       .  S
C280        C764   1.475       .  S
C281        C426   1.477       .  S
C281        C596   1.468       .  S
C281        C708   1.475       .  S
C281        C748   1.476       .  S
C282        C414   1.475       .  S
C282        C568   1.475       .  S
C282        C652   1.473       .  S
C282        C790   1.476       .  S
C283        C398   1.467       .  S
C283        C512   1.467       .  S
C283        C622   1.477       .  S
C283        C722   1.473       .  S
C284        C302   1.591   1_455  S
C284        C315   1.598       .  S
C284        C329   1.591   1_455  S
C284        C484   1.471       .  S
C285        C317   1.590   1_556  S
C285        C331   1.598   1_456  S
C285        C375   1.596   1_455  S
C285        C442   1.471       .  S
C286        C300   1.596       .  S
C286        C332   1.595       .  S
C286        C358   1.597       .  S
C286        C470   1.476       .  S
C287        C299   1.589   1_465  S
C287        C316   1.593   1_565  S
C287        C345   1.599   1_455  S
C287        C456   1.467       .  S
C288        C301   1.592   1_565  S
C288        C347   1.599       .  S
C288        C360   1.597   1_565  S
C288        C412   1.473       .  S
O289       Cu297   2.220       .  S
O289        C299   1.295       .  A
O290       Cu297   2.226       .  S
O290        C300   1.295       .  A
O291       Cu297   2.225       .  S
O291        C301   1.295       .  A
O292       Cu297   2.215       .  S
O292        C302   1.294       .  A
O293       Cu298   1.871       .  S
O293        C302   1.244       .  A
O294       Cu298   1.870       .  S
O294        C301   1.242       .  A
O295       Cu298   1.882       .  S
O295        C300   1.243       .  A
O296       Cu298   1.866       .  S
O296        C299   1.243       .  A
Cu297      Cu298   2.122       .  S
C303        C314   1.594   1_566  S
C303        C346   1.594   1_456  S
C303        C373   1.595   1_465  S
C303        C400   1.467       .  S
O304       Cu312   2.231       .  S
O304        C314   1.296       .  A
O305       Cu312   2.230       .  S
O305        C315   1.295       .  A
O306       Cu312   2.230       .  S
O306        C316   1.295       .  A
O307       Cu312   2.221       .  S
O307        C317   1.295       .  A
O308       Cu313   1.880       .  S
O308        C317   1.242       .  A
O309       Cu313   1.886       .  S
O309        C316   1.240       .  A
O310       Cu313   1.890       .  S
O310        C315   1.242       .  A
O311       Cu313   1.879       .  S
O311        C314   1.240       .  A
Cu312      Cu313   2.090       .  S
C318        C330   1.596   1_556  S
C318        C361   1.603   1_556  S
C318        C372   1.594       .  S
C318        C428   1.477       .  S
O319       Cu327   1.890       .  S
O319        C329   1.243       .  A
O320       Cu327   1.884       .  S
O320        C330   1.242       .  A
O321       Cu327   1.886       .  S
O321        C331   1.242       .  A
O322       Cu327   1.878       .  S
O322        C332   1.243       .  A
O323       Cu328   2.225       .  S
O323        C332   1.295       .  A
O324       Cu328   2.231       .  S
O324        C331   1.295       .  A
O325       Cu328   2.234       .  S
O325        C330   1.297       .  A
O326       Cu328   2.223       .  S
O326        C329   1.294       .  A
Cu327      Cu328   2.098       .  S
C333        C344   1.597   1_556  S
C333        C359   1.596   1_566  S
C333        C374   1.600   1_565  S
C333        C384   1.475       .  S
O334       Cu342   1.879       .  S
O334        C344   1.242       .  A
O335       Cu342   1.880       .  S
O335        C345   1.243       .  A
O336       Cu342   1.879       .  S
O336        C346   1.242       .  A
O337       Cu342   1.888       .  S
O337        C347   1.242       .  A
O338       Cu343   2.234       .  S
O338        C347   1.296       .  A
O339       Cu343   2.230       .  S
O339        C346   1.296       .  A
O340       Cu343   2.227       .  S
O340        C345   1.294       .  A
O341       Cu343   2.232       .  S
O341        C344   1.296       .  A
Cu342      Cu343   2.097       .  S
O348       Cu356   2.226       .  S
O348        C358   1.295       .  A
O349       Cu356   2.233       .  S
O349        C359   1.297       .  A
O350       Cu356   2.228       .  S
O350        C360   1.295       .  A
O351       Cu356   2.238       .  S
O351        C361   1.296       .  A
O352       Cu357   1.888       .  S
O352        C361   1.242       .  A
O353       Cu357   1.879       .  S
O353        C360   1.243       .  A
O354       Cu357   1.881       .  S
O354        C359   1.241       .  A
O355       Cu357   1.888       .  S
O355        C358   1.243       .  A
Cu356      Cu357   2.093       .  S
O362       Cu370   2.225       .  S
O362        C372   1.296       .  A
O363       Cu370   2.223       .  S
O363        C373   1.294       .  A
O364       Cu370   2.237       .  S
O364        C374   1.296       .  A
O365       Cu370   2.225       .  S
O365        C375   1.295       .  A
O366       Cu371   1.875       .  S
O366        C375   1.244       .  A
O367       Cu371   1.880       .  S
O367        C374   1.243       .  A
O368       Cu371   1.874       .  S
O368        C373   1.243       .  A
O369       Cu371   1.868       .  S
O369        C372   1.243       .  A
Cu370      Cu371   2.119       .  S
C376        C386   1.473       .  S
C376        C552   1.475       .  S
C376        C610   1.473       .  S
C376        C736   1.470       .  S
C377        C385   1.447       .  S
C377        C378   1.403       .  A
C377        C382   1.402       .  A
C378        C379   1.403       .  A
C378        H387   1.084       .  S
C379        C380   1.404       .  A
C379        H388   1.083       .  S
C380        C383   1.449       .  S
C380        C381   1.402       .  A
C381        C382   1.401       .  A
C381        H389   1.083       .  S
C382        H390   1.083       .  S
C383        C384   1.211       .  T
C385        C386   1.211       .  T
C391        C399   1.441       .  S
C391        C392   1.402       .  A
C391        C396   1.402       .  A
C392        C393   1.399       .  A
C392        H401   1.083       .  S
C393        C394   1.401       .  A
C393        H402   1.083       .  S
C394        C397   1.440       .  S
C394        C395   1.401       .  A
C395        C396   1.400       .  A
C395        H403   1.084       .  S
C396        H404   1.083       .  S
C397        C398   1.207       .  T
C399        C400   1.207       .  T
C405        C413   1.447       .  S
C405        C406   1.402       .  A
C405        C410   1.404       .  A
C406        C407   1.400       .  A
C406        H415   1.083       .  S
C407        C408   1.401       .  A
C407        H416   1.084       .  S
C408        C411   1.447       .  S
C408        C409   1.404       .  A
C409        C410   1.404       .  A
C409        H417   1.083       .  S
C410        H418   1.084       .  S
C411        C412   1.210       .  T
C413        C414   1.211       .  T
C419        C427   1.451       .  S
C419        C420   1.404       .  A
C419        C424   1.403       .  A
C420        C421   1.404       .  A
C420        H429   1.085       .  S
C421        C422   1.404       .  A
C421        H430   1.082       .  S
C422        C425   1.450       .  S
C422        C423   1.402       .  A
C423        C424   1.403       .  A
C423        H431   1.085       .  S
C424        H432   1.082       .  S
C425        C426   1.213       .  T
C427        C428   1.213       .  T
C433        C441   1.446       .  S
C433        C434   1.402       .  A
C433        C438   1.403       .  A
C434        C435   1.401       .  A
C434        H443   1.083       .  S
C435        C436   1.402       .  A
C435        H444   1.083       .  S
C436        C439   1.446       .  S
C436        C437   1.403       .  A
C437        C438   1.402       .  A
C437        H445   1.084       .  S
C438        H446   1.083       .  S
C439        C440   1.210       .  T
C441        C442   1.209       .  T
C447        C455   1.442       .  S
C447        C448   1.400       .  A
C447        C452   1.403       .  A
C448        C449   1.399       .  A
C448        H457   1.086       .  S
C449        C450   1.402       .  A
C449        H458   1.081       .  S
C450        C453   1.445       .  S
C450        C451   1.403       .  A
C451        C452   1.402       .  A
C451        H459   1.086       .  S
C452        H460   1.081       .  S
C453        C454   1.210       .  T
C455        C456   1.207       .  T
C461        C469   1.451       .  S
C461        C462   1.403       .  A
C461        C466   1.404       .  A
C462        C463   1.403       .  A
C462        H471   1.083       .  S
C463        C464   1.403       .  A
C463        H472   1.083       .  S
C464        C467   1.452       .  S
C464        C465   1.405       .  A
C465        C466   1.405       .  A
C465        H473   1.083       .  S
C466        H474   1.083       .  S
C467        C468   1.214       .  T
C469        C470   1.212       .  T
C475        C483   1.446       .  S
C475        C476   1.403       .  A
C475        C480   1.401       .  A
C476        C477   1.403       .  A
C476        H485   1.085       .  S
C477        C478   1.404       .  A
C477        H486   1.082       .  S
C478        C481   1.446       .  S
C478        C479   1.401       .  A
C479        C480   1.400       .  A
C479        H487   1.084       .  S
C480        H488   1.082       .  S
C481        C482   1.210       .  T
C483        C484   1.209       .  T
C489        C497   1.456       .  S
C489        C490   1.406       .  A
C489        C494   1.403       .  A
C490        C491   1.406       .  A
C490        H499   1.082       .  S
C491        C492   1.403       .  A
C491        H500   1.085       .  S
C492        C495   1.451       .  S
C492        C493   1.403       .  A
C493        C494   1.403       .  A
C493        H501   1.082       .  S
C494        H502   1.085       .  S
C495        C496   1.213       .  T
C497        C498   1.216       .  T
C503        C511   1.439       .  S
C503        C504   1.401       .  A
C503        C508   1.402       .  A
C504        C505   1.398       .  A
C504        H513   1.084       .  S
C505        C506   1.401       .  A
C505        H514   1.083       .  S
C506        C509   1.439       .  S
C506        C507   1.402       .  A
C507        C508   1.400       .  A
C507        H515   1.084       .  S
C508        H516   1.083       .  S
C509        C510   1.205       .  T
C511        C512   1.207       .  T
C517        C525   1.446       .  S
C517        C518   1.402       .  A
C517        C522   1.402       .  A
C518        C519   1.402       .  A
C518        H527   1.083       .  S
C519        C520   1.403       .  A
C519        H528   1.083       .  S
C520        C523   1.447       .  S
C520        C521   1.403       .  A
C521        C522   1.402       .  A
C521        H529   1.083       .  S
C522        H530   1.084       .  S
C523        C524   1.211       .  T
C525        C526   1.210       .  T
C531        C539   1.442       .  S
C531        C532   1.402       .  A
C531        C536   1.402       .  A
C532        C533   1.400       .  A
C532        H541   1.083       .  S
C533        C534   1.402       .  A
C533        H542   1.084       .  S
C534        C537   1.439       .  S
C534        C535   1.401       .  A
C535        C536   1.399       .  A
C535        H543   1.084       .  S
C536        H544   1.083       .  S
C537        C538   1.205       .  T
C539        C540   1.209       .  T
C545        C553   1.444       .  S
C545        C546   1.402       .  A
C545        C550   1.402       .  A
C546        C547   1.401       .  A
C546        H555   1.083       .  S
C547        C548   1.402       .  A
C547        H556   1.084       .  S
C548        C551   1.447       .  S
C548        C549   1.403       .  A
C549        C550   1.402       .  A
C549        H557   1.083       .  S
C550        H558   1.084       .  S
C551        C552   1.211       .  T
C553        C554   1.208       .  T
C559        C567   1.447       .  S
C559        C560   1.402       .  A
C559        C564   1.403       .  A
C560        C561   1.401       .  A
C560        H569   1.084       .  S
C561        C562   1.402       .  A
C561        H570   1.083       .  S
C562        C565   1.446       .  S
C562        C563   1.403       .  A
C563        C564   1.402       .  A
C563        H571   1.084       .  S
C564        H572   1.083       .  S
C565        C566   1.210       .  T
C567        C568   1.211       .  T
C573        C581   1.445       .  S
C573        C574   1.403       .  A
C573        C578   1.402       .  A
C574        C575   1.402       .  A
C574        H583   1.083       .  S
C575        C576   1.403       .  A
C575        H584   1.084       .  S
C576        C579   1.446       .  S
C576        C577   1.402       .  A
C577        C578   1.401       .  A
C577        H585   1.083       .  S
C578        H586   1.084       .  S
C579        C580   1.210       .  T
C581        C582   1.209       .  T
C587        C595   1.440       .  S
C587        C588   1.401       .  A
C587        C592   1.402       .  A
C588        C589   1.399       .  A
C588        H597   1.084       .  S
C589        C590   1.401       .  A
C589        H598   1.083       .  S
C590        C593   1.438       .  S
C590        C591   1.401       .  A
C591        C592   1.399       .  A
C591        H599   1.084       .  S
C592        H600   1.083       .  S
C593        C594   1.205       .  T
C595        C596   1.207       .  T
C601        C609   1.447       .  S
C601        C602   1.402       .  A
C601        C606   1.402       .  A
C602        C603   1.402       .  A
C602        H611   1.084       .  S
C603        C604   1.403       .  A
C603        H612   1.083       .  S
C604        C607   1.449       .  S
C604        C605   1.403       .  A
C605        C606   1.402       .  A
C605        H613   1.083       .  S
C606        H614   1.083       .  S
C607        C608   1.212       .  T
C609        C610   1.211       .  T
C615        C623   1.454       .  S
C615        C616   1.405       .  A
C615        C620   1.403       .  A
C616        C617   1.405       .  A
C616        H625   1.082       .  S
C617        C618   1.404       .  A
C617        H626   1.085       .  S
C618        C621   1.451       .  S
C618        C619   1.402       .  A
C619        C620   1.403       .  A
C619        H627   1.082       .  S
C620        H628   1.084       .  S
C621        C622   1.213       .  T
C623        C624   1.214       .  T
C629        C637   1.450       .  S
C629        C630   1.402       .  A
C629        C634   1.404       .  A
C630        C631   1.402       .  A
C630        H639   1.084       .  S
C631        C632   1.402       .  A
C631        H640   1.082       .  S
C632        C635   1.447       .  S
C632        C633   1.403       .  A
C633        C634   1.403       .  A
C633        H641   1.085       .  S
C634        H642   1.082       .  S
C635        C636   1.211       .  T
C637        C638   1.212       .  T
C643        C651   1.446       .  S
C643        C644   1.403       .  A
C643        C648   1.401       .  A
C644        C645   1.403       .  A
C644        H653   1.082       .  S
C645        C646   1.403       .  A
C645        H654   1.085       .  S
C646        C649   1.447       .  S
C646        C647   1.402       .  A
C647        C648   1.400       .  A
C647        H655   1.082       .  S
C648        H656   1.085       .  S
C649        C650   1.210       .  T
C651        C652   1.211       .  T
C657        C665   1.442       .  S
C657        C658   1.402       .  A
C657        C662   1.401       .  A
C658        C659   1.401       .  A
C658        H667   1.085       .  S
C659        C660   1.403       .  A
C659        H668   1.082       .  S
C660        C663   1.445       .  S
C660        C661   1.402       .  A
C661        C662   1.400       .  A
C661        H669   1.084       .  S
C662        H670   1.082       .  S
C663        C664   1.210       .  T
C665        C666   1.207       .  T
C671        C679   1.448       .  S
C671        C672   1.404       .  A
C671        C676   1.402       .  A
C672        C673   1.403       .  A
C672        H681   1.083       .  S
C673        C674   1.403       .  A
C673        H682   1.083       .  S
C674        C677   1.446       .  S
C674        C675   1.402       .  A
C675        C676   1.401       .  A
C675        H683   1.083       .  S
C676        H684   1.083       .  S
C677        C678   1.210       .  T
C679        C680   1.211       .  T
C685        C693   1.451       .  S
C685        C686   1.403       .  A
C685        C690   1.404       .  A
C686        C687   1.404       .  A
C686        H695   1.085       .  S
C687        C688   1.404       .  A
C687        H696   1.082       .  S
C688        C691   1.451       .  S
C688        C689   1.403       .  A
C689        C690   1.403       .  A
C689        H697   1.085       .  S
C690        H698   1.082       .  S
C691        C692   1.213       .  T
C693        C694   1.213       .  T
C699        C707   1.448       .  S
C699        C700   1.403       .  A
C699        C704   1.403       .  A
C700        C701   1.403       .  A
C700        H709   1.084       .  S
C701        C702   1.403       .  A
C701        H710   1.083       .  S
C702        C705   1.449       .  S
C702        C703   1.403       .  A
C703        C704   1.402       .  A
C703        H711   1.084       .  S
C704        H712   1.083       .  S
C705        C706   1.212       .  T
C707        C708   1.212       .  T
C713        C721   1.446       .  S
C713        C714   1.404       .  A
C713        C718   1.401       .  A
C714        C715   1.403       .  A
C714        H723   1.083       .  S
C715        C716   1.403       .  A
C715        H724   1.084       .  S
C716        C719   1.446       .  S
C716        C717   1.401       .  A
C717        C718   1.400       .  A
C717        H725   1.083       .  S
C718        H726   1.084       .  S
C719        C720   1.210       .  T
C721        C722   1.210       .  T
C727        C735   1.442       .  S
C727        C728   1.402       .  A
C727        C732   1.402       .  A
C728        C729   1.400       .  A
C728        H737   1.083       .  S
C729        C730   1.402       .  A
C729        H738   1.084       .  S
C730        C733   1.442       .  S
C730        C731   1.402       .  A
C731        C732   1.400       .  A
C731        H739   1.083       .  S
C732        H740   1.084       .  S
C733        C734   1.207       .  T
C735        C736   1.208       .  T
C741        C749   1.451       .  S
C741        C742   1.403       .  A
C741        C746   1.404       .  A
C742        C743   1.402       .  A
C742        H751   1.082       .  S
C743        C744   1.402       .  A
C743        H752   1.085       .  S
C744        C747   1.449       .  S
C744        C745   1.404       .  A
C745        C746   1.404       .  A
C745        H753   1.082       .  S
C746        H754   1.084       .  S
C747        C748   1.212       .  T
C749        C750   1.213       .  T
C755        C763   1.449       .  S
C755        C756   1.403       .  A
C755        C760   1.403       .  A
C756        C757   1.403       .  A
C756        H765   1.086       .  S
C757        C758   1.404       .  A
C757        H766   1.081       .  S
C758        C761   1.450       .  S
C758        C759   1.403       .  A
C759        C760   1.403       .  A
C759        H767   1.086       .  S
C760        H768   1.081       .  S
C761        C762   1.212       .  T
C763        C764   1.212       .  T
C769        C777   1.449       .  S
C769        C770   1.403       .  A
C769        C774   1.403       .  A
C770        C771   1.403       .  A
C770        H779   1.083       .  S
C771        C772   1.403       .  A
C771        H780   1.084       .  S
C772        C775   1.450       .  S
C772        C773   1.403       .  A
C773        C774   1.403       .  A
C773        H781   1.083       .  S
C774        H782   1.084       .  S
C775        C776   1.212       .  T
C777        C778   1.212       .  T
C783        C791   1.451       .  S
C783        C784   1.404       .  A
C783        C788   1.403       .  A
C784        C785   1.404       .  A
C784        H793   1.084       .  S
C785        C786   1.403       .  A
C785        H794   1.083       .  S
C786        C789   1.450       .  S
C786        C787   1.403       .  A
C787        C788   1.403       .  A
C787        H795   1.084       .  S
C788        H796   1.083       .  S
C789        C790   1.212       .  T
C791        C792   1.213       .  T
C797        C805   1.449       .  S
C797        C798   1.404       .  A
C797        C802   1.402       .  A
C798        C799   1.404       .  A
C798        H807   1.083       .  S
C799        C800   1.404       .  A
C799        H808   1.083       .  S
C800        C803   1.449       .  S
C800        C801   1.402       .  A
C801        C802   1.402       .  A
C801        H809   1.083       .  S
C802        H810   1.083       .  S
C803        C804   1.212       .  T
C805        C806   1.212       .  T
C811        C819   1.447       .  S
C811        C812   1.403       .  A
C811        C816   1.402       .  A
C812        C813   1.402       .  A
C812        H821   1.083       .  S
C813        C814   1.403       .  A
C813        H822   1.084       .  S
C814        C817   1.446       .  S
C814        C815   1.402       .  A
C815        C816   1.401       .  A
C815        H823   1.083       .  S
C816        H824   1.084       .  S
C817        C818   1.209       .  T
C819        C820   1.211       .  T
