geometry optimzed in LAMMPS
_audit_creation_date              2020-11-30 
_audit_creation_method            'lammps2cif' 
_symmetry_space_group_name_H-M    'P1' 
_symmetry_Int_Tables_number       1 
_symmetry_cell_setting            triclinic 
loop_ 
_symmetry_equiv_pos_as_xyz 
  x,y,z 
_cell_length_a                    23.04644539495769 
_cell_length_b                    23.27455167016293 
_cell_length_c                    23.285310411407156 
_cell_angle_alpha                 90.7713726378661 
_cell_angle_beta                  87.7357788222882 
_cell_angle_gamma                 88.71031071264946 
loop_ 
_atom_site_label 
_atom_site_type_symbol 
_atom_site_fract_x 
_atom_site_fract_y 
_atom_site_fract_z 
_atom_site_charge 
O1          O  0.21020420  0.49897331  0.09639132    -0.73850
O2          O  0.20342711  0.50173665  0.92781636    -0.73880
O3          O  0.19634855  0.42112997  0.00963781    -0.73930
O4          O  0.20033459  0.57914974  0.01587479    -0.73980
O5          O  0.29663580  0.58115926  0.00429044    -0.73910
O6          O  0.29247154  0.41033634  0.00485634    -0.73890
O7          O  0.30004141  0.49467793  0.92745228    -0.73870
O8          O  0.30641580  0.49765434  0.08212635    -0.73930
Ni9        Ni  0.19892109  0.50028572  0.01281058     1.25410
Ni10       Ni  0.30240529  0.49563324  0.00462020     1.25360
C11         C  0.26237709  0.49940556  0.11546917     0.88330
C12         C  0.25387126  0.49834299  0.90100618     0.88260
C13         C  0.24081208  0.38855067  0.00611717     0.88290
C14         C  0.24614721  0.60722621  0.00962676     0.88460
C15         C  0.33301510  0.50053687  0.67308901    -0.01910
O16         O  0.71384623  0.41559315  0.99106762    -0.73850
O17         O  0.72580777  0.58733905  0.00162605    -0.73880
O18         O  0.70281958  0.50713154  0.91815787    -0.73930
O19         O  0.71065220  0.49705390  0.07454981    -0.73980
O20         O  0.80665092  0.48811747  0.07467284    -0.73910
O21         O  0.79806000  0.49916859  0.90173428    -0.73890
O22         O  0.82045183  0.56982006  0.99466405    -0.73870
O23         O  0.80995521  0.41664076  0.98142573    -0.73930
Ni24       Ni  0.70954409  0.50223133  0.99645713     1.25410
Ni25       Ni  0.81220504  0.49330005  0.98756557     1.25360
C26         C  0.76449884  0.38896540  0.98613247     0.88330
C27         C  0.77938001  0.60525351  0.99910874     0.88260
C28         C  0.74518038  0.50376298  0.88281532     0.88290
C29         C  0.75589178  0.49128107  0.10213309     0.88460
C30         C  0.65079035  0.50528563  0.65806018    -0.01910
O31         O  0.00563148  0.57159267  0.71019898    -0.73850
O32         O  0.99829696  0.40310924  0.70889073    -0.73880
O33         O  0.92177784  0.48951667  0.69309905    -0.73930
O34         O  0.08004850  0.48031735  0.71271099    -0.73980
O35         O  0.06993974  0.49101737  0.80794166    -0.73910
O36         O  0.90077871  0.48503996  0.78702617    -0.73890
O37         O  0.98973641  0.41143724  0.80452372    -0.73870
O38         O  0.98057444  0.56898052  0.80347532    -0.73930
Ni39       Ni  0.00155751  0.48651605  0.70256701     1.25410
Ni40       Ni  0.98435288  0.48943058  0.80423832     1.25360
C41         C  0.99581722  0.59717317  0.75969931     0.88330
C42         C  0.99460201  0.38110099  0.75943658     0.88260
C43         C  0.88469168  0.48460016  0.73424425     0.88290
C44         C  0.10207629  0.48396397  0.76128890     0.88460
O45         O  0.09224279  0.48770702  0.19502857    -0.73850
O46         O  0.91860645  0.49844472  0.19378060    -0.73880
O47         O  0.00907320  0.57003948  0.17408335    -0.73930
O48         O  0.00180883  0.41536377  0.19438911    -0.73980
O49         O  0.99307596  0.42193563  0.28984740    -0.73910
O50         O  0.00749792  0.59029441  0.26749966    -0.73890
O51         O  0.92173561  0.51684929  0.28764228    -0.73870
O52         O  0.07958394  0.49784286  0.28971293    -0.73930
Ni53       Ni  0.00567815  0.49257732  0.18572932     1.25410
Ni54       Ni  0.00054582  0.50731068  0.28716534     1.25360
C55         C  0.11317601  0.49070445  0.24626267     0.88330
C56         C  0.89286187  0.50909751  0.24388021     0.88260
C57         C  0.00764031  0.60650354  0.21407100     0.88290
C58         C  0.99594056  0.39178921  0.24222192     0.88460
C59         C  0.66000254  0.50045645  0.33336808    -0.01910
C60         C  0.33687292  0.49647067  0.34182840    -0.01910
O61         O  0.50840470  0.79928207  0.91481191    -0.73850
O62         O  0.50801108  0.80394121  0.08519191    -0.73880
O63         O  0.58659660  0.81222044  0.99625974    -0.73930
O64         O  0.42836851  0.80638936  0.00132740    -0.73980
O65         O  0.42734300  0.71093203  0.99825405    -0.73910
O66         O  0.59898534  0.71749089  0.00140911    -0.73890
O67         O  0.51097432  0.70835379  0.08029380    -0.73870
O68         O  0.51888678  0.70417886  0.92140257    -0.73930
Ni69       Ni  0.50765747  0.80885877  0.99957319     1.25410
Ni70       Ni  0.51411692  0.70661817  0.00059332     1.25360
C71         C  0.51425073  0.74845453  0.89133047     0.88330
C72         C  0.51013055  0.75418908  0.10996917     0.88260
C73         C  0.61979134  0.76875808  0.99812853     0.88290
C74         C  0.40040416  0.76072003  0.99802470     0.88460
C75         C  0.49176647  0.66384284  0.66270149    -0.01910
O76         O  0.51083586  0.91790502  0.79944605    -0.73850
O77         O  0.50298558  0.08942972  0.79401646    -0.73880
O78         O  0.42929500  0.99989518  0.80062778    -0.73930
O79         O  0.58377952  0.00766801  0.81486446    -0.73980
O80         O  0.60350189  0.01060433  0.72064846    -0.73910
O81         O  0.43554681  0.98587353  0.70574057    -0.73890
O82         O  0.50872961  0.07685011  0.69905404    -0.73870
O83         O  0.53397068  0.92104373  0.70590759    -0.73930
Ni84       Ni  0.50652380  0.00403102  0.80593346     1.25410
Ni85       Ni  0.52092331  0.99872639  0.70409645     1.25360
C86         C  0.52187325  0.89246855  0.74975857     0.88330
C87         C  0.50504063  0.11001133  0.74208015     0.88260
C88         C  0.40619453  0.98709813  0.75475391     0.88290
C89         C  0.61942426  0.01264216  0.77363710     0.88460
O90         O  0.50530086  0.20052002  0.91362197    -0.73850
O91         O  0.50430936  0.20598993  0.08520195    -0.73880
O92         O  0.42755696  0.18711676  0.00203288    -0.73930
O93         O  0.58291298  0.19694429  0.99639308    -0.73980
O94         O  0.58240850  0.29245141  0.00063810    -0.73910
O95         O  0.41130084  0.28149927  0.99666386    -0.73890
O96         O  0.49045450  0.30030609  0.07666545    -0.73870
O97         O  0.50105689  0.29605430  0.92001060    -0.73930
Ni98       Ni  0.50518627  0.19404378  0.99937878     1.25410
Ni99       Ni  0.49595687  0.29629815  0.99834295     1.25360
C100        C  0.50387623  0.25102463  0.88996502     0.88330
C101        C  0.49815553  0.25759286  0.10772870     0.88260
C102        C  0.39316183  0.22890464  0.99833836     0.88290
C103        C  0.60940950  0.24268170  0.00098548     0.88460
C104        C  0.49267222  0.33534333  0.65824203    -0.01910
O105        O  0.48304894  0.91936007  0.22554733    -0.73850
O106        O  0.50055885  0.08722653  0.20816142    -0.73880
O107        O  0.57077233  0.99179430  0.20351835    -0.73930
O108        O  0.41243220  0.01636883  0.21219904    -0.73980
O109        O  0.40652754  0.01967495  0.30766601    -0.73910
O110        O  0.58008126  0.00747008  0.29714984    -0.73890
O111        O  0.49734412  0.09030399  0.30402837    -0.73870
O112        O  0.49013560  0.93491364  0.31937176    -0.73930
Ni113      Ni  0.49153423  0.00296231  0.20889220     1.25410
Ni114      Ni  0.49359943  0.01315851  0.31066960     1.25360
C115        C  0.48645188  0.90049479  0.27783544     0.88330
C116        C  0.49982961  0.11530047  0.25669734     0.88260
C117        C  0.60269195  0.99929396  0.24536221     0.88290
C118        C  0.38200683  0.02196801  0.25815859     0.88460
C119        C  0.49056988  0.66037955  0.33874392    -0.01910
C120        C  0.49916074  0.34177780  0.34066296    -0.01910
O121        O  0.21861762  0.91122243  0.50894938    -0.73850
O122        O  0.21130070  0.08213601  0.49878201    -0.73880
O123        O  0.19638035  0.98929523  0.42607008    -0.73930
O124        O  0.20898168  0.00192015  0.58120247    -0.73980
O125        O  0.30543686  0.99611313  0.57841564    -0.73910
O126        O  0.29101993  0.99651937  0.40709089    -0.73890
O127        O  0.30732212  0.07410488  0.49530685    -0.73870
O128        O  0.31264094  0.92143927  0.49036942    -0.73930
Ni129      Ni  0.20488933  0.99622050  0.50387603     1.25410
Ni130      Ni  0.30757392  0.99734011  0.49206547     1.25360
C131        C  0.27126515  0.88988038  0.50112686     0.88330
C132        C  0.26264834  0.10496430  0.49611757     0.88260
C133        C  0.23790335  0.99122137  0.38985353     0.88290
C134        C  0.25550404  0.99849894  0.60694014     0.88460
C135        C  0.33448898  0.65164148  0.50649066    -0.01910
O136        O  0.78641234  0.91532123  0.49506896    -0.73850
O137        O  0.79248013  0.08817852  0.50172713    -0.73880
O138        O  0.80692655  0.99871626  0.57495187    -0.73930
O139        O  0.79837914  0.00422449  0.42183480    -0.73980
O140        O  0.70213476  0.01039662  0.42166409    -0.73910
O141        O  0.71151095  0.00072913  0.59266370    -0.73890
O142        O  0.69661504  0.08437435  0.51435642    -0.73870
O143        O  0.69084094  0.92907725  0.50230096    -0.73930
Ni144      Ni  0.79966318  0.00140188  0.49831601     1.25410
Ni145      Ni  0.69656468  0.00650152  0.50820177     1.25360
C146        C  0.73359461  0.89528935  0.49765486     0.88330
C147        C  0.74122719  0.11344158  0.50805296     0.88260
C148        C  0.76481116  0.99709858  0.60996367     0.88290
C149        C  0.75305018  0.00658627  0.39476036     0.88460
C150        C  0.65334996  0.66269065  0.49306464    -0.01910
O151        O  0.99050433  0.71731235  0.40296469    -0.73850
O152        O  0.01400689  0.70950447  0.57029845    -0.73880
O153        O  0.92205615  0.70200290  0.49984630    -0.73930
O154        O  0.07999732  0.70698045  0.47107351    -0.73980
O155        O  0.08338041  0.80079591  0.48952069    -0.73910
O156        O  0.91016639  0.79710666  0.49873599    -0.73890
O157        O  0.99927273  0.80441897  0.57227793    -0.73870
O158        O  0.99377080  0.81215181  0.41607718    -0.73930
Ni159      Ni  0.00138100  0.70536075  0.48595512     1.25410
Ni160      Ni  0.99626314  0.80734047  0.49415306     1.25360
C161        C  0.99159681  0.76914748  0.38310115     0.88330
C162        C  0.01212476  0.75885778  0.59748025     0.88260
C163        C  0.88882690  0.74571125  0.50038960     0.88290
C164        C  0.10913683  0.75079091  0.48067489     0.88460
O165        O  0.08095810  0.20411678  0.49400595    -0.73850
O166        O  0.90851938  0.21240914  0.50732712    -0.73880
O167        O  0.98971821  0.19682642  0.42299222    -0.73930
O168        O  0.99745649  0.19885178  0.57808754    -0.73980
O169        O  0.00522990  0.29384956  0.58455666    -0.73910
O170        O  0.98602484  0.29221922  0.41576876    -0.73890
O171        O  0.91883352  0.30715865  0.51250653    -0.73870
O172        O  0.07448861  0.29914705  0.48578426    -0.73930
Ni173      Ni  0.99419212  0.19932539  0.50047975     1.25410
Ni174      Ni  0.99640757  0.30167649  0.49967582     1.25360
C175        C  0.10489818  0.25408099  0.48834981     0.88330
C176        C  0.88696208  0.26447330  0.51322380     0.88260
C177        C  0.98449601  0.24086323  0.39321885     0.88290
C178        C  0.00160930  0.24340835  0.60808777     0.88460
C179        C  0.65291774  0.34451397  0.49827785    -0.01910
C180        C  0.32974905  0.34369817  0.50662439    -0.01910
C181        C  0.99253182  0.15746067  0.16503011    -0.01910
C182        C  0.83068960  0.00515758  0.15511847    -0.01910
C183        C  0.00225687  0.84704803  0.15101092    -0.01910
C184        C  0.15790099  0.99829147  0.16432029    -0.01910
C185        C  0.01610050  0.83224360  0.83254310    -0.01910
C186        C  0.17063060  0.99352400  0.83574452    -0.01910
C187        C  0.01801891  0.15603121  0.83671468    -0.01910
C188        C  0.85472674  0.99921526  0.83883224    -0.01910
C189        C  0.16130563  0.15391354  0.00518671    -0.01910
C190        C  0.16808308  0.84039643  0.99504819    -0.01910
C191        C  0.84882020  0.16301792  0.99610077    -0.01910
C192        C  0.84973015  0.84365569  0.99640019    -0.01910
C193        C  0.86263002  0.05621319  0.12572438     0.03710
C194        C  0.91218442  0.07911789  0.15254095    -0.12440
C195        C  0.93859773  0.13039529  0.13449177     0.01210
C196        C  0.91832521  0.15419326  0.08253778    -0.10970
C197        C  0.87070399  0.13168188  0.05196636     0.03700
C198        C  0.84654049  0.07970990  0.07268050    -0.10390
H199        H  0.92977716  0.05683928  0.18862518     0.09290
H200        H  0.94024060  0.19129044  0.06563530     0.06820
H201        H  0.81275780  0.05928927  0.04946124     0.06670
C202        C  0.13867154  0.87477894  0.04863595     0.03710
C203        C  0.08298752  0.85665730  0.06999382    -0.12440
C204        C  0.05559965  0.87815963  0.12223928     0.01210
C205        C  0.07901901  0.92727416  0.14603562    -0.10970
C206        C  0.13494921  0.94672457  0.12907270     0.03700
C207        C  0.16310742  0.92160379  0.07875361    -0.10390
H208        H  0.06246658  0.82214408  0.04793300     0.09290
H209        H  0.05418969  0.94945988  0.18014067     0.06820
H210        H  0.20286771  0.93952342  0.06325153     0.06670
C211        C  0.14087016  0.04700359  0.86838705     0.03710
C212        C  0.09143480  0.07353217  0.84648320    -0.12440
C213        C  0.06942146  0.12682774  0.86740281     0.01210
C214        C  0.09243316  0.14931994  0.91846487    -0.10970
C215        C  0.13932455  0.12286136  0.94748519     0.03700
C216        C  0.15888672  0.06788604  0.92361168    -0.10390
H217        H  0.07028016  0.05365458  0.81169362     0.09290
H218        H  0.07210245  0.18755102  0.93637651     0.06820
H219        H  0.18892944  0.04154103  0.94654191     0.06670
C220        C  0.87425315  0.87796071  0.04787398     0.03710
C221        C  0.84601690  0.92521924  0.07662386    -0.12440
C222        C  0.86602040  0.95021144  0.12836768     0.01210
C223        C  0.91993294  0.92715771  0.14767461    -0.10970
C224        C  0.94762452  0.87608778  0.12275030     0.03700
C225        C  0.92778821  0.85799814  0.06924081    -0.10390
H226        H  0.80729743  0.94223142  0.05950254     0.09290
H227        H  0.94124457  0.94874799  0.18205461     0.06820
H228        H  0.95319085  0.82639451  0.04424309     0.06670
C229        C  0.07013035  0.86079775  0.85969831     0.03710
C230        C  0.09356898  0.91261563  0.83891641    -0.12440
C231        C  0.14176806  0.93921245  0.86402402     0.01210
C232        C  0.15946559  0.91705626  0.91672368    -0.10970
C233        C  0.13804715  0.86516104  0.94039416     0.03700
C234        C  0.09039779  0.84084929  0.91306768    -0.10390
H235        H  0.07357556  0.93279236  0.80297292     0.09290
H236        H  0.19215585  0.93970267  0.93855818     0.06820
H237        H  0.06678890  0.80789371  0.93386454     0.06670
C238        C  0.88465765  0.05207797  0.86952368     0.03710
C239        C  0.86300840  0.07756273  0.92243778    -0.12440
C240        C  0.88344424  0.13056762  0.94441668     0.01210
C241        C  0.93588891  0.15101874  0.91871940    -0.10970
C242        C  0.96224511  0.12658981  0.86676893     0.03700
C243        C  0.93741986  0.07500530  0.84538999    -0.10390
H244        H  0.82935421  0.05640511  0.94705880     0.09290
H245        H  0.95535872  0.18790714  0.93809678     0.06820
H246        H  0.95774476  0.05390582  0.80783509     0.06670
C247        C  0.88658443  0.94305779  0.86362908     0.03710
C248        C  0.93868712  0.91640361  0.84053304    -0.12440
C249        C  0.96293516  0.86470691  0.86409097     0.01210
C250        C  0.93913324  0.84557385  0.91771053    -0.10970
C251        C  0.88553589  0.86767828  0.94156661     0.03700
C252        C  0.86517380  0.91987198  0.91644294    -0.10390
H253        H  0.96104799  0.93562467  0.80422585     0.09290
H254        H  0.96403597  0.81441216  0.94033917     0.06820
H255        H  0.82998773  0.94248351  0.93759688     0.06670
C256        C  0.12615644  0.05205536  0.13564388     0.03710
C257        C  0.14973042  0.07546615  0.08358573    -0.12440
C258        C  0.12576309  0.12549713  0.05673108     0.01210
C259        C  0.07257233  0.14828504  0.08124274    -0.10970
C260        C  0.04752833  0.12771241  0.13346614     0.03700
C261        C  0.07163986  0.07574875  0.15540495    -0.10390
H262        H  0.18911791  0.05561012  0.06493073     0.09290
H263        H  0.05024325  0.18224506  0.06083322     0.06820
H264        H  0.04846512  0.05535912  0.18981838     0.06670
C265        C  0.35890073  0.37277693  0.56058969     0.03710
C266        C  0.41069611  0.34706720  0.58209716    -0.12440
C267        C  0.43691192  0.36605790  0.63315309     0.01210
C268        C  0.41378231  0.41783850  0.65889258    -0.10970
C269        C  0.36263177  0.44613274  0.64052706     0.03700
C270        C  0.33819981  0.42424580  0.58896594    -0.10390
H271        H  0.43155181  0.31245377  0.55779428     0.09290
H272        H  0.43740124  0.43658874  0.69245510     0.06820
H273        H  0.30275195  0.44766048  0.57107584     0.06670
C274        C  0.55389827  0.37204460  0.36562716     0.03710
C275        C  0.57639355  0.35054070  0.41734323    -0.12440
C276        C  0.62556464  0.37277170  0.44319735     0.01210
C277        C  0.64745619  0.42521959  0.41934571    -0.10970
C278        C  0.63055703  0.44701929  0.36506970     0.03700
C279        C  0.57991814  0.42222029  0.34230098    -0.10390
H280        H  0.55350575  0.31713637  0.43848999     0.09290
H281        H  0.67789849  0.44872877  0.44327996     0.06820
H282        H  0.56019824  0.44299082  0.30644637     0.06670
C283        C  0.36428707  0.55083396  0.37112232     0.03710
C284        C  0.41515195  0.57648006  0.34566500    -0.12440
C285        C  0.44116421  0.62499618  0.36991365     0.01210
C286        C  0.42171322  0.64095747  0.42704296    -0.10970
C287        C  0.36798665  0.62256466  0.45179071     0.03700
C288        C  0.34268271  0.57437508  0.42406418    -0.10390
H289        H  0.43548846  0.55835597  0.30707766     0.09290
H290        H  0.44852093  0.66880060  0.45135569     0.06820
H291        H  0.30552309  0.55466585  0.44361350     0.06670
C292        C  0.44566694  0.36998540  0.37597643     0.03710
C293        C  0.42122639  0.42118272  0.35431749    -0.12440
C294        C  0.36600626  0.44276559  0.37170713     0.01210
C295        C  0.33983637  0.41753333  0.42191034    -0.10970
C296        C  0.36444566  0.36902477  0.45098090     0.03700
C297        C  0.42051284  0.34893247  0.42866734    -0.10390
H298        H  0.44580119  0.44362938  0.32277348     0.09290
H299        H  0.29956231  0.43672924  0.43914395     0.06820
H300        H  0.44464489  0.31656805  0.45115562     0.06670
C301        C  0.35912180  0.55560066  0.64235956     0.03710
C302        C  0.40920372  0.58425601  0.66412800    -0.12440
C303        C  0.43455391  0.63406193  0.63851688     0.01210
C304        C  0.41271659  0.64822284  0.58415809    -0.10970
C305        C  0.36156861  0.62291805  0.56077112     0.03700
C306        C  0.33745785  0.57561647  0.59016601    -0.10390
H307        H  0.42938826  0.56710346  0.70149641     0.09290
H308        H  0.43453472  0.68171282  0.56060459     0.06820
H309        H  0.30209296  0.55365745  0.57312379     0.06670
C310        C  0.54664763  0.37024279  0.63214907     0.03710
C311        C  0.56994380  0.42154224  0.65725858    -0.12440
C312        C  0.61889266  0.45067861  0.63152956     0.01210
C313        C  0.63976424  0.42935046  0.57636746    -0.10970
C314        C  0.62202842  0.37634203  0.55250070     0.03700
C315        C  0.57219733  0.35146143  0.57882774    -0.10390
H316        H  0.54886461  0.43899220  0.69580853     0.09290
H317        H  0.67251658  0.45324923  0.55300789     0.06820
H318        H  0.55335464  0.31522815  0.55779383     0.06670
C319        C  0.62771505  0.55651521  0.36111213     0.03710
C320        C  0.57545705  0.58215043  0.34098385    -0.12440
C321        C  0.54834941  0.63323099  0.36604054     0.01210
C322        C  0.57138364  0.65221259  0.41914509    -0.10970
C323        C  0.62572293  0.63131486  0.43973893     0.03700
C324        C  0.64952796  0.58100723  0.41233542    -0.10390
H325        H  0.55343490  0.56082259  0.30751617     0.09290
H326        H  0.54813027  0.68525740  0.44430134     0.06820
H327        H  0.68380409  0.55846965  0.43230694     0.06670
C328        C  0.54460756  0.63337359  0.62798647     0.03710
C329        C  0.57106670  0.58328186  0.64968374    -0.12440
C330        C  0.62400993  0.55942114  0.62656205     0.01210
C331        C  0.64603621  0.58340478  0.57370836    -0.10970
C332        C  0.62212543  0.63495460  0.54912584     0.03700
C333        C  0.56826012  0.65559216  0.57500803    -0.10390
H334        H  0.55099653  0.56373626  0.68716338     0.09290
H335        H  0.68254091  0.56198878  0.55150702     0.06820
H336        H  0.54467986  0.68993140  0.55480149     0.06670
C337        C  0.17595926  0.30586501  0.53894023    -0.11690
C338        C  0.16678233  0.26897898  0.49187565     0.05320
C339        C  0.20161877  0.27731439  0.44139827    -0.06980
C340        C  0.24723310  0.31760559  0.44202835    -0.07720
C341        C  0.26227217  0.34823497  0.49309274    -0.02270
C342        C  0.21746240  0.34944348  0.53668481     0.04540
N343        N  0.20447703  0.40048464  0.56971762     0.67050
H344        H  0.14377290  0.30701389  0.57428152     0.15950
H345        H  0.27725362  0.31724272  0.40515880     0.15660
N346        N  0.19276627  0.24385721  0.39003785     0.74760
O347        O  0.17561643  0.39741636  0.61673537    -0.38690
O348        O  0.20285281  0.44711245  0.54321745    -0.38640
O349        O  0.21550835  0.25849473  0.34238972    -0.39340
O350        O  0.16631847  0.19697414  0.39274170    -0.39410
C351        C  0.06004462  0.21624502  0.68770146    -0.11690
C352        C  0.00470114  0.22822263  0.66923353     0.05320
C353        C  0.95919222  0.19628997  0.69472542    -0.06980
C354        C  0.96998326  0.15782710  0.73959952    -0.07720
C355        C  0.02321569  0.15415713  0.76748328    -0.02270
C356        C  0.07095717  0.17909854  0.73400617     0.04540
N357        N  0.13121268  0.16828652  0.74394128     0.67050
H358        H  0.09612863  0.23481377  0.66371016     0.15950
H359        H  0.93417088  0.13459595  0.75584226     0.15660
N360        N  0.90108585  0.20199196  0.67531482     0.74760
O361        O  0.16900762  0.17568156  0.70414655    -0.38690
O362        O  0.14828730  0.15900870  0.79321332    -0.38640
O363        O  0.89017334  0.19029948  0.62396265    -0.39340
O364        O  0.85946445  0.21194219  0.71104602    -0.39410
C365        C  0.03797618  0.21703976  0.30671101    -0.11690
C366        C  0.98346324  0.22500103  0.33236440     0.05320
C367        C  0.93948499  0.18826399  0.31436462    -0.06980
C368        C  0.94933725  0.14955480  0.26774098    -0.07720
C369        C  0.00003865  0.15222184  0.23233000    -0.02270
C370        C  0.04831757  0.18011377  0.25932370     0.04540
N371        N  0.10743965  0.17720929  0.23747374     0.67050
H372        H  0.07419951  0.23796131  0.32600395     0.15950
H373        H  0.91321955  0.12472578  0.25474006     0.15660
N374        N  0.88251025  0.19471955  0.33985662     0.74760
O375        O  0.13937232  0.21996706  0.24368604    -0.38690
O376        O  0.13271824  0.12929757  0.23403245    -0.38640
O377        O  0.85965582  0.24440876  0.34224753    -0.39340
O378        O  0.85143844  0.15148187  0.34873466    -0.39410
C379        C  0.75462845  0.36003860  0.53847688    -0.11690
C380        C  0.72125897  0.34609007  0.49076135     0.05320
C381        C  0.75026918  0.30831578  0.44848595    -0.06980
C382        C  0.79759082  0.27361861  0.46425304    -0.07720
C383        C  0.82558153  0.28258606  0.51468659    -0.02270
C384        C  0.80654294  0.33028461  0.54976468     0.04540
N385        N  0.84135858  0.35157439  0.59493758     0.67050
H386        H  0.73940261  0.38998851  0.57101503     0.15950
H387        H  0.81527224  0.24058345  0.43541430     0.15660
N388        N  0.73073842  0.30054480  0.39108372     0.74760
O389        O  0.84965043  0.40484425  0.59939790    -0.38690
O390        O  0.86936884  0.31744790  0.62576659    -0.38640
O391        O  0.71426941  0.34342055  0.36341858    -0.39340
O392        O  0.74756740  0.25649040  0.36242751    -0.39410
C393        C  0.97092704  0.76876952  0.69287945    -0.11690
C394        C  0.02142042  0.76972667  0.65895626     0.05320
C395        C  0.06412026  0.80957353  0.67528670    -0.06980
C396        C  0.05915476  0.83818907  0.72909081    -0.07720
C397        C  0.00902307  0.83478471  0.76545588    -0.02270
C398        C  0.96090213  0.80689305  0.73960061     0.04540
N399        N  0.90104379  0.81733710  0.75648334     0.67050
H400        H  0.93514607  0.74393423  0.67796843     0.15950
H401        H  0.09727418  0.85903280  0.74331075     0.15660
N402        N  0.11199648  0.82318437  0.63707351     0.74760
O403        O  0.86440061  0.81765998  0.71780935    -0.38690
O404        O  0.88259081  0.80978191  0.80707169    -0.38640
O405        O  0.13457617  0.87203990  0.63916350    -0.39340
O406        O  0.13103186  0.78712230  0.59998917    -0.39410
C407        C  0.94484907  0.78369979  0.29113264    -0.11690
C408        C  0.99431721  0.78584948  0.32239623     0.05320
C409        C  0.03703154  0.82569769  0.30573627    -0.06980
C410        C  0.03252189  0.85818490  0.25585278    -0.07720
C411        C  0.98799279  0.84854463  0.21774742    -0.02270
C412        C  0.94019954  0.81524252  0.24060283     0.04540
N413        N  0.88662130  0.81042491  0.21292868     0.67050
H414        H  0.90826835  0.75925477  0.30719939     0.15950
H415        H  0.06975551  0.88239721  0.24335642     0.15660
N416        N  0.08795794  0.83011617  0.33805442     0.74760
O417        O  0.87327454  0.76148292  0.19435737    -0.38690
O418        O  0.84585116  0.84367268  0.23094892    -0.38640
O419        O  0.11125451  0.78495829  0.35659638    -0.39340
O420        O  0.10804292  0.87853349  0.35031062    -0.39410
C421        C  0.81227921  0.69191276  0.45597790    -0.11690
C422        C  0.82623836  0.73012722  0.50058887     0.05320
C423        C  0.79056269  0.72916372  0.55141844    -0.06980
C424        C  0.73783549  0.69888318  0.55098689    -0.07720
C425        C  0.72140576  0.66299374  0.50424321    -0.02270
C426        C  0.76652577  0.65246669  0.46180165     0.04540
N427        N  0.78039911  0.59474859  0.44333479     0.67050
H428        H  0.84427630  0.68502411  0.42099779     0.15950
H429        H  0.70642788  0.70696577  0.58602174     0.15660
N430        N  0.80699395  0.75705894  0.60382102     0.74760
O431        O  0.81799090  0.58559170  0.40315079    -0.38690
O432        O  0.77151257  0.55518844  0.47879553    -0.38640
O433        O  0.85807077  0.77384707  0.60945118    -0.39340
O434        O  0.77224817  0.75979815  0.64706683    -0.39410
C435        C  0.68583099  0.18944182  0.46239717    -0.11690
C436        C  0.72455152  0.17576512  0.50639275     0.05320
C437        C  0.71813825  0.20924882  0.55786498    -0.06980
C438        C  0.67980176  0.25808530  0.55989272    -0.07720
C439        C  0.64946972  0.27705495  0.51104575    -0.02270
C440        C  0.64229252  0.23346473  0.46908618     0.04540
N441        N  0.58425082  0.21786196  0.45492072     0.67050
H442        H  0.68157215  0.15788679  0.42821672     0.15950
H443        H  0.68116886  0.28693142  0.59661187     0.15660
N444        N  0.75213469  0.19675500  0.60718173     0.74760
O445        O  0.57664756  0.17809178  0.41875733    -0.38690
O446        O  0.54225117  0.23164958  0.48912698    -0.38640
O447        O  0.78112739  0.15037605  0.61017855    -0.39340
O448        O  0.75347583  0.23244435  0.64841676    -0.39410
C449        C  0.71770391  0.80297063  0.44471583    -0.11690
C450        C  0.71345400  0.83436887  0.49620435     0.05320
C451        C  0.66785758  0.81869355  0.53579107    -0.06980
C452        C  0.63544275  0.76871083  0.52687989    -0.07720
C453        C  0.64885858  0.72992046  0.48087776    -0.02270
C454        C  0.68506498  0.75326238  0.43476777     0.04540
N455        N  0.69761262  0.72281580  0.38113782     0.67050
H456        H  0.74599720  0.81739215  0.41063977     0.15950
H457        H  0.60664637  0.75695825  0.56159785     0.15660
N458        N  0.65289724  0.85400939  0.58549976     0.74760
O459        O  0.65683521  0.70539087  0.35174289    -0.38690
O460        O  0.74708511  0.72641672  0.35632425    -0.38640
O461        O  0.60024290  0.86486646  0.59929482    -0.39340
O462        O  0.69194645  0.87547362  0.61502428    -0.39410
C463        C  0.78060501  0.04420029  0.70145461    -0.11690
C464        C  0.78585022  0.99416636  0.66927468     0.05320
C465        C  0.83327727  0.95633450  0.68158768    -0.06980
C466        C  0.86507302  0.96398107  0.73192106    -0.07720
C467        C  0.85317445  0.01002948  0.77101208    -0.02270
C468        C  0.81495167  0.05474291  0.74908412     0.04540
N469        N  0.80350979  0.10847132  0.77820415     0.67050
H470        H  0.75023645  0.07692488  0.68768053     0.15950
H471        H  0.89475034  0.92995062  0.74209352     0.15660
N472        N  0.85124624  0.91080360  0.64205396     0.74760
O473        O  0.75636869  0.13567478  0.77109710    -0.38690
O474        O  0.84481573  0.13533054  0.79779752    -0.38640
O475        O  0.90447469  0.89769238  0.63421244    -0.39340
O476        O  0.81436354  0.88462376  0.61359930    -0.39410
C477        C  0.75917157  0.05467504  0.30168387    -0.11690
C478        C  0.76845955  0.00517677  0.33245810     0.05320
C479        C  0.81479015  0.96745978  0.31218800    -0.06980
C480        C  0.84314671  0.97570190  0.25904994    -0.07720
C481        C  0.82650130  0.01920583  0.22204285    -0.02270
C482        C  0.78817002  0.06432901  0.24806439     0.04540
N483        N  0.77369514  0.11854150  0.22170614     0.67050
H484        H  0.72952954  0.08700661  0.32077206     0.15950
H485        H  0.87384016  0.94301891  0.24534898     0.15660
N486        N  0.83518370  0.92069571  0.34612888     0.74760
O487        O  0.74784764  0.15817714  0.25101866    -0.38690
O488        O  0.78311599  0.12723749  0.16925834    -0.38640
O489        O  0.79958093  0.89090854  0.37420423    -0.39340
O490        O  0.88855568  0.90704053  0.34575377    -0.39410
C491        C  0.17744127  0.69044283  0.53009815    -0.11690
C492        C  0.17099288  0.73434427  0.48927991     0.05320
C493        C  0.21263498  0.73450216  0.44350902    -0.06980
C494        C  0.25860876  0.69339979  0.44127034    -0.07720
C495        C  0.26900566  0.65540843  0.48741297    -0.02270
C496        C  0.21939748  0.64558158  0.52212699     0.04540
N497        N  0.19641112  0.58925057  0.52012349     0.67050
H498        H  0.14096670  0.68248217  0.55961543     0.15950
H499        H  0.29324825  0.70060071  0.41068628     0.15660
N500        N  0.21341075  0.77948613  0.40248080     0.74760
O501        O  0.14236910  0.58273955  0.51559560    -0.38690
O502        O  0.23004771  0.54639376  0.51249419    -0.38640
O503        O  0.19665553  0.82979497  0.41693495    -0.39340
O504        O  0.23629196  0.77024248  0.35308822    -0.39410
C505        C  0.26335371  0.19810545  0.54647190    -0.11690
C506        C  0.27848686  0.16631065  0.49698011     0.05320
C507        C  0.32910499  0.18432208  0.46489973    -0.06980
C508        C  0.35021223  0.23932314  0.47362717    -0.07720
C509        C  0.32948541  0.27642483  0.51759206    -0.02270
C510        C  0.29138461  0.24973562  0.56048798     0.04540
N511        N  0.27919077  0.27221966  0.61800992     0.67050
H512        H  0.23189722  0.18041097  0.57683904     0.15950
H513        H  0.38317670  0.25216662  0.44447907     0.15660
N514        N  0.36481753  0.14596429  0.42842485     0.74760
O515        O  0.26370533  0.23864840  0.65763286    -0.38690
O516        O  0.28022732  0.32489255  0.62989156    -0.38640
O517        O  0.34297306  0.10848628  0.39697438    -0.39340
O518        O  0.41949104  0.14834358  0.42925321    -0.39410
C519        C  0.20567503  0.04204837  0.69082049    -0.11690
C520        C  0.24272443  0.99636946  0.66979729     0.05320
C521        C  0.23446790  0.94196349  0.69529812    -0.06980
C522        C  0.19465618  0.93691203  0.74289212    -0.07720
C523        C  0.16523651  0.98582976  0.76827304    -0.02270
C524        C  0.15853680  0.03169790  0.72993806     0.04540
N525        N  0.10129047  0.04237261  0.70834656     0.67050
H526        H  0.20291717  0.07985434  0.66438483     0.15950
H527        H  0.19515655  0.89706461  0.76632915     0.15660
N528        N  0.26700734  0.89185169  0.67480400     0.74760
O529        O  0.09491918  0.07510227  0.66611258    -0.38690
O530        O  0.06044944  0.00896542  0.72124128    -0.38640
O531        O  0.31466341  0.89671151  0.64686486    -0.39340
O532        O  0.25130329  0.84251354  0.68990843    -0.39410
C533        C  0.17404647  0.03282634  0.31812683    -0.11690
C534        C  0.21627552  0.98991562  0.32963265     0.05320
C535        C  0.21236522  0.93770495  0.29748483    -0.06980
C536        C  0.17377635  0.93462458  0.25135445    -0.07720
C537        C  0.14551284  0.98429644  0.23090010    -0.02270
C538        C  0.13316531  0.02543106  0.27494616     0.04540
N539        N  0.07338403  0.03943006  0.29105556     0.67050
H540        H  0.16611765  0.06705954  0.34969500     0.15950
H541        H  0.17596448  0.89703987  0.22388085     0.15660
N542        N  0.25294652  0.89090070  0.30444923     0.74760
O543        O  0.06145766  0.07700430  0.32961117    -0.38690
O544        O  0.03404567  0.00531519  0.27777128    -0.38640
O545        O  0.25004535  0.84619146  0.27351873    -0.39340
O546        O  0.30006817  0.90047785  0.32774762    -0.39410
C547        C  0.36412187  0.75427121  0.48351692    -0.11690
C548        C  0.33673077  0.71723293  0.52184570     0.05320
C549        C  0.29525108  0.74360991  0.56379135    -0.06980
C550        C  0.27076737  0.79788563  0.55192525    -0.07720
C551        C  0.29196693  0.82998654  0.50651599    -0.02270
C552        C  0.34525725  0.81043224  0.47809097     0.04540
N553        N  0.38409911  0.84711907  0.44669979     0.67050
H554        H  0.39789560  0.74114772  0.45362478     0.15950
H555        H  0.23650954  0.81656519  0.57966614     0.15660
N556        N  0.27269476  0.71499604  0.61451785     0.74760
O557        O  0.43710869  0.84752867  0.45849322    -0.38690
O558        O  0.36869595  0.87039394  0.40126710    -0.38640
O559        O  0.30478264  0.68268825  0.64290078    -0.39340
O560        O  0.22561174  0.73255244  0.63891367    -0.39410
C561        C  0.55295969  0.20068667  0.27533620    -0.11690
C562        C  0.49953680  0.17723647  0.26580344     0.05320
C563        C  0.45115440  0.19959846  0.29830751    -0.06980
C564        C  0.45804057  0.24216396  0.34080379    -0.07720
C565        C  0.50845543  0.27453971  0.34240437    -0.02270
C566        C  0.55841633  0.24761236  0.31319032     0.04540
N567        N  0.61620994  0.26299426  0.32402037     0.67050
H568        H  0.59173873  0.17979459  0.25612528     0.15950
H569        H  0.41988256  0.25834099  0.36273008     0.15660
N570        N  0.39397789  0.18234925  0.28464074     0.74760
O571        O  0.65026278  0.22258842  0.33707229    -0.38690
O572        O  0.63736326  0.30506711  0.29795261    -0.38640
O573        O  0.35051970  0.20088919  0.31457768    -0.39340
O574        O  0.38612199  0.15978398  0.23603322    -0.39410
C575        C  0.67816170  0.04331321  0.18440627    -0.11690
C576        C  0.66498862  0.00125935  0.22617044     0.05320
C577        C  0.69865755  0.94982631  0.22295085    -0.06980
C578        C  0.74516858  0.94378643  0.18178026    -0.07720
C579        C  0.76399267  0.99120462  0.14869142    -0.02270
C580        C  0.71869468  0.03115829  0.13823366     0.04540
N581        N  0.69000833  0.02196450  0.08557244     0.67050
H582        H  0.64573216  0.07680341  0.17794498     0.15950
H583        H  0.77485016  0.90827338  0.18691990     0.15660
N584        N  0.69079974  0.90662317  0.26555641     0.74760
O585        O  0.65150032  0.98427092  0.08361608    -0.38690
O586        O  0.69429261  0.05724511  0.04534033    -0.38640
O587        O  0.71024707  0.85607970  0.25606664    -0.39340
O588        O  0.67597387  0.92178693  0.31633362    -0.39410
C589        C  0.24196268  0.06094679  0.18794297    -0.11690
C590        C  0.22603956  0.00753114  0.16479559     0.05320
C591        C  0.26664672  0.96222267  0.17561398    -0.06980
C592        C  0.30838994  0.96755160  0.21742481    -0.07720
C593        C  0.31886089  0.01887239  0.24617524    -0.02270
C594        C  0.28405338  0.06691067  0.23024916     0.04540
N595        N  0.28028174  0.11823636  0.26459668     0.67050
H596        H  0.21546164  0.09782275  0.17958891     0.15950
H597        H  0.33826282  0.93128832  0.22258946     0.15660
N598        N  0.27663874  0.91493341  0.13776830     0.74760
O599        O  0.26653947  0.16524816  0.24167907    -0.38690
O600        O  0.27158924  0.11371991  0.31800295    -0.38640
O601        O  0.32748339  0.91110528  0.11588691    -0.39340
O602        O  0.25016096  0.86915779  0.14775937    -0.39410
C603        C  0.43377626  0.81024643  0.29375765    -0.11690
C604        C  0.48521364  0.83955317  0.29617251     0.05320
C605        C  0.52722743  0.81766325  0.33320489    -0.06980
C606        C  0.52145497  0.76356398  0.35803456    -0.07720
C607        C  0.47497769  0.72731337  0.34710213    -0.02270
C608        C  0.42594732  0.75585303  0.31954568     0.04540
N609        N  0.37073868  0.72970698  0.30899044     0.67050
H610        H  0.39872435  0.83090180  0.27153879     0.15950
H611        H  0.55867889  0.74855315  0.37959791     0.15660
N612        N  0.57856332  0.84833997  0.34453006     0.74760
O613        O  0.33620737  0.75247592  0.27464389    -0.38690
O614        O  0.35496991  0.68460777  0.33308366    -0.38640
O615        O  0.57531014  0.89026351  0.37953302    -0.39340
O616        O  0.62685005  0.82252735  0.33594935    -0.39410
C617        C  0.44572821  0.28356145  0.19819887    -0.11690
C618        C  0.49926446  0.27550297  0.16908598     0.05320
C619        C  0.54410108  0.31143177  0.18692788    -0.06980
C620        C  0.53736584  0.34637041  0.23655683    -0.07720
C621        C  0.48797745  0.34519672  0.27368504    -0.02270
C622        C  0.43807576  0.31899496  0.24812103     0.04540
N623        N  0.37854119  0.33117743  0.26653889     0.67050
H624        H  0.40811212  0.26425455  0.17991969     0.15950
H625        H  0.57446834  0.37024402  0.24796657     0.15660
N626        N  0.59788745  0.31401330  0.15504124     0.74760
O627        O  0.34146217  0.33603737  0.22843803    -0.38690
O628        O  0.35998998  0.32183569  0.31695361    -0.38640
O629        O  0.59844668  0.33373078  0.10496020    -0.39340
O630        O  0.64370216  0.31545242  0.18262295    -0.39410
C631        C  0.74368032  0.16106482  0.03737905    -0.11690
C632        C  0.78028979  0.16524047  0.98734477     0.05320
C633        C  0.75403839  0.19696560  0.94124164    -0.06980
C634        C  0.70233615  0.22955435  0.95179098    -0.07720
C635        C  0.67160887  0.23004227  0.00384616    -0.02270
C636        C  0.69078042  0.19157470  0.04591036     0.04540
N637        N  0.65579985  0.18084670  0.09700181     0.67050
H638        H  0.75766129  0.13859234  0.07385447     0.15950
H639        H  0.68440374  0.25420165  0.91761453     0.15660
N640        N  0.77976975  0.20241876  0.88456320     0.74760
O641        O  0.61233108  0.14916144  0.09380095    -0.38690
O642        O  0.67649103  0.18922973  0.14564544    -0.38640
O643        O  0.83346609  0.20483774  0.87784455    -0.39340
O644        O  0.74972757  0.22105283  0.84432698    -0.39410
C645        C  0.30147559  0.21967125  0.05074683    -0.11690
C646        C  0.33320201  0.20943130  0.99993421     0.05320
C647        C  0.31919687  0.16036773  0.96653033    -0.06980
C648        C  0.26898140  0.12961271  0.98051595    -0.07720
C649        C  0.22762118  0.15056092  0.02182523    -0.02270
C650        C  0.25017802  0.19023173  0.06438096     0.04540
N651        N  0.21994234  0.20801067  0.11748263     0.67050
H652        H  0.31779954  0.25098887  0.08059734     0.15950
H653        H  0.26051863  0.09327971  0.95413200     0.15660
N654        N  0.35604840  0.14070558  0.91851189     0.74760
O655        O  0.17586461  0.18294640  0.13625314    -0.38690
O656        O  0.24028621  0.24669545  0.14896899    -0.38640
O657        O  0.36036887  0.08783634  0.90571617    -0.39340
O658        O  0.38064547  0.17635475  0.88592604    -0.39410
C659        C  0.54378785  0.32585940  0.75264937    -0.11690
C660        C  0.48995655  0.33295887  0.72585706     0.05320
C661        C  0.44043740  0.31131092  0.75767025    -0.06980
C662        C  0.44791206  0.27804267  0.80719495    -0.07720
C663        C  0.50260719  0.26492727  0.82829188    -0.02270
C664        C  0.55046279  0.29273043  0.80213375     0.04540
N665        N  0.60634768  0.29019827  0.82676149     0.67050
H666        H  0.58321948  0.34120235  0.73216647     0.15950
H667        H  0.40960627  0.26397763  0.83087768     0.15660
N668        N  0.38177737  0.32091765  0.74102402     0.74760
O669        O  0.65030878  0.27570886  0.79541525    -0.38690
O670        O  0.61358536  0.31689392  0.87333587    -0.38640
O671        O  0.36433028  0.29558972  0.69728285    -0.39340
O672        O  0.34400500  0.33680827  0.77883300    -0.39410
C673        C  0.55389675  0.24173622  0.66171757    -0.11690
C674        C  0.50037877  0.26748570  0.64598495     0.05320
C675        C  0.45302844  0.22954781  0.65435074    -0.06980
C676        C  0.45255671  0.19077020  0.70086576    -0.07720
C677        C  0.50433793  0.17143380  0.72437681    -0.02270
C678        C  0.55621247  0.19451771  0.69987382     0.04540
N679        N  0.61169869  0.16964920  0.71229551     0.67050
H680        H  0.59391569  0.26360295  0.65232630     0.15950
H681        H  0.41421108  0.16553757  0.70917055     0.15660
N682        N  0.41942998  0.21309784  0.60647336     0.74760
O683        O  0.65194295  0.16710195  0.67405829    -0.38690
O684        O  0.61999766  0.14766436  0.76048959    -0.38640
O685        O  0.44364946  0.21136436  0.55693796    -0.39340
O686        O  0.37529022  0.18279305  0.61522003    -0.39410
C687        C  0.71045742  0.96341426  0.78118869    -0.11690
C688        C  0.67882682  0.01304848  0.79295520     0.05320
C689        C  0.69412817  0.04645364  0.84127201    -0.06980
C690        C  0.74880164  0.03825150  0.86499375    -0.07720
C691        C  0.78636130  0.99161179  0.84727793    -0.02270
C692        C  0.75904211  0.94877002  0.81231546     0.04540
N693        N  0.78213994  0.89200276  0.80317469     0.67050
H694        H  0.69434545  0.93349774  0.74994105     0.15950
H695        H  0.76138628  0.07229496  0.89276888     0.15660
N696        N  0.65409873  0.08753528  0.86804429     0.74760
O697        O  0.77058024  0.86464401  0.75801479    -0.38690
O698        O  0.79230015  0.86344235  0.84676964    -0.38640
O699        O  0.61810666  0.07090771  0.90620297    -0.39340
O700        O  0.66438669  0.14033228  0.86506325    -0.39410
C701        C  0.31548493  0.03411704  0.76937975    -0.11690
C702        C  0.34391401  0.98122961  0.76577016     0.05320
C703        C  0.32373137  0.93808120  0.80370359    -0.06980
C704        C  0.27232003  0.94667944  0.83783073    -0.07720
C705        C  0.23885565  0.99834582  0.83621227    -0.02270
C706        C  0.26701792  0.04495060  0.80646027     0.04540
N707        N  0.24755014  0.10375237  0.81080696     0.67050
H708        H  0.33533516  0.06971018  0.74688784     0.15950
H709        H  0.25609343  0.90980135  0.86026011     0.15660
N710        N  0.35538429  0.88503863  0.80887903     0.74760
O711        O  0.23864941  0.12608307  0.85970085    -0.38810
O712        O  0.25888892  0.13716533  0.76971732    -0.38640
O713        O  0.39903010  0.88318138  0.83988683    -0.39340
O714        O  0.33153363  0.83873314  0.79557213    -0.39410
C715        C  0.55450723  0.75358023  0.66982651    -0.11690
C716        C  0.49833248  0.73193524  0.65906870     0.05320
C717        C  0.45212902  0.77003065  0.67735733    -0.06980
C718        C  0.46066553  0.81650447  0.71557682    -0.07720
C719        C  0.51548385  0.83089641  0.73436308    -0.02270
C720        C  0.56362487  0.80009692  0.70842534     0.04540
N721        N  0.62222337  0.81414319  0.72234514     0.67050
H722        H  0.59247588  0.72810369  0.65656245     0.15950
H723        H  0.42475994  0.84639157  0.72459276     0.15660
N724        N  0.39986233  0.77101695  0.64765153     0.74760
O725        O  0.66498727  0.78783800  0.69782787    -0.38690
O726        O  0.63161951  0.84791879  0.76360906    -0.38640
O727        O  0.35297148  0.78037362  0.67625882    -0.39340
O728        O  0.40348039  0.78745590  0.59637243    -0.39410
C729        C  0.45602366  0.71421213  0.18914246    -0.11690
C730        C  0.50612597  0.74295555  0.17299623     0.05320
C731        C  0.55592574  0.73069584  0.20472153    -0.06980
C732        C  0.55237182  0.69221912  0.25194993    -0.07720
C733        C  0.50086882  0.66333287  0.27015178    -0.02270
C734        C  0.45488858  0.67110311  0.23122364     0.04540
N735        N  0.41108700  0.63018862  0.22492518     0.67050
H736        H  0.41950574  0.71816000  0.16126006     0.15950
H737        H  0.58985060  0.68800410  0.27764028     0.15660
N738        N  0.61016202  0.75766628  0.19071476     0.74760
O739        O  0.36160077  0.64907145  0.21208213    -0.38690
O740        O  0.42737551  0.58165719  0.20500881    -0.38640
O741        O  0.61146109  0.80218955  0.16034847    -0.39340
O742        O  0.65626298  0.74038980  0.21318618    -0.39410
C743        C  0.45731010  0.72180165  0.81135083    -0.11690
C744        C  0.51194444  0.73445797  0.82963308     0.05320
C745        C  0.55997135  0.70601984  0.80143038    -0.06980
C746        C  0.55148844  0.66779412  0.75447919    -0.07720
C747        C  0.49608664  0.66007365  0.73073621    -0.02270
C748        C  0.44911834  0.68243037  0.76649373     0.04540
N749        N  0.39442925  0.65684441  0.76740985     0.67050
H750        H  0.41995963  0.73718271  0.83701720     0.15950
H751        H  0.58981574  0.65287675  0.73051948     0.15660
N752        N  0.61792490  0.72012456  0.81646087     0.74760
O753        O  0.38387344  0.62484182  0.80963253    -0.38690
O754        O  0.35296093  0.68405516  0.74585485    -0.38640
O755        O  0.66091359  0.69562283  0.79070757    -0.39340
O756        O  0.62654149  0.76376168  0.84749707    -0.39410
C757        C  0.31625249  0.81655846  0.03417841    -0.11690
C758        C  0.33677505  0.77327508  0.99504695     0.05320
C759        C  0.30757531  0.76918554  0.94284754    -0.06980
C760        C  0.25763350  0.80481668  0.93481955    -0.07720
C761        C  0.23547071  0.84321888  0.97881887    -0.02270
C762        C  0.27787667  0.86062977  0.01630509     0.04540
N763        N  0.30424899  0.91545951  0.00481154     0.67050
H764        H  0.34345329  0.82477296  0.06984241     0.15950
H765        H  0.23135628  0.79608932  0.89877964     0.15660
N766        N  0.32473964  0.72680565  0.89998455     0.74760
O767        O  0.35891002  0.91909716  0.00115553    -0.38690
O768        O  0.27412162  0.95863404  0.99109080    -0.38640
O769        O  0.34978116  0.68057916  0.91395004    -0.39340
O770        O  0.30840354  0.73221494  0.84926815    -0.39410
C771        C  0.69322442  0.83590358  0.02705496    -0.11690
C772        C  0.68152017  0.78470370  0.99598770     0.05320
C773        C  0.71964087  0.76891140  0.94916480    -0.06980
C774        C  0.76958016  0.80170952  0.93925053    -0.07720
C775        C  0.78468568  0.84685730  0.97747252    -0.02270
C776        C  0.73742500  0.87280635  0.00869540     0.04540
N777        N  0.71644351  0.92828841  0.99034865     0.67050
H778        H  0.65988887  0.85420532  0.05648888     0.15950
H779        H  0.80325525  0.78359105  0.91024862     0.15660
N780        N  0.71260801  0.71758665  0.91496377     0.74760
O781        O  0.66582360  0.93354148  0.97175322    -0.38690
O782        O  0.74912160  0.97074607  0.98663802    -0.38640
O783        O  0.74469847  0.70851085  0.87053495    -0.39340
O784        O  0.67973662  0.67810777  0.93174967    -0.39410
C785        C  0.25129658  0.43748884  0.31252345    -0.11690
C786        C  0.26833931  0.48693796  0.34354006     0.05320
C787        C  0.22700129  0.53309356  0.34374531    -0.06980
C788        C  0.18763976  0.53791835  0.29919236    -0.07720
C789        C  0.17524991  0.49130532  0.26311039    -0.02270
C790        C  0.20835967  0.44020097  0.27030961     0.04540
N791        N  0.20760131  0.39526397  0.22792585     0.67050
H792        H  0.27966599  0.39998597  0.31214387     0.15950
H793        H  0.15747419  0.57448602  0.30080296     0.15660
N794        N  0.20226172  0.55261058  0.39705752     0.74760
O795        O  0.22784587  0.34587190  0.23860937    -0.38690
O796        O  0.19462356  0.40688930  0.17715049    -0.38640
O797        O  0.18576674  0.60460014  0.40120615    -0.39340
O798        O  0.17374778  0.51585665  0.42506439    -0.39410
C799        C  0.05330647  0.70098064  0.20842427    -0.11690
C800        C  0.00819955  0.66657592  0.19319696     0.05320
C801        C  0.97485310  0.68454635  0.14601570    -0.06980
C802        C  0.97761203  0.74134481  0.12662623    -0.07720
C803        C  0.01782159  0.78009447  0.14744389    -0.02270
C804        C  0.06282479  0.75447968  0.18242066     0.04540
N805        N  0.11564729  0.78266697  0.19717122     0.67050
H806        H  0.08386574  0.68390827  0.23839641     0.15950
H807        H  0.94471967  0.75469705  0.09816096     0.15660
N808        N  0.93781686  0.64627047  0.11648425     0.74760
O809        O  0.14318244  0.76659857  0.24017270    -0.38690
O810        O  0.14188424  0.81364286  0.16162537    -0.38640
O811        O  0.88652336  0.66271409  0.10753437    -0.39340
O812        O  0.96074416  0.60788767  0.08357081    -0.39410
C813        C  0.94164748  0.30472039  0.22598557    -0.11690
C814        C  0.99491533  0.32884411  0.23451292     0.05320
C815        C  0.04297728  0.30384197  0.20357514    -0.06980
C816        C  0.03755066  0.25610913  0.16635066    -0.07720
C817        C  0.98618667  0.22535028  0.16454510    -0.02270
C818        C  0.93628836  0.25497681  0.19135916     0.04540
N819        N  0.87852248  0.23890230  0.18181418     0.67050
H820        H  0.90288639  0.32689763  0.24359244     0.15950
H821        H  0.07678505  0.23730128  0.14714139     0.15660
N822        N  0.09904372  0.32564413  0.21211527     0.74760
O823        O  0.85776680  0.19802113  0.20974097    -0.38690
O824        O  0.84410149  0.27855174  0.16811252    -0.38640
O825        O  0.11053868  0.34459062  0.26135514    -0.39340
O826        O  0.13973359  0.31298113  0.17613518    -0.39410
C827        C  0.74874369  0.55951986  0.31050701    -0.11690
C828        C  0.72849952  0.50882558  0.33781932     0.05320
C829        C  0.77070693  0.46242012  0.33671672    -0.06980
C830        C  0.81488680  0.45995947  0.29278678    -0.07720
C831        C  0.82999754  0.50779656  0.25998260    -0.02270
C832        C  0.79841930  0.55962930  0.27254431     0.04540
N833        N  0.81420827  0.61195875  0.24444061     0.67050
H834        H  0.72132479  0.59790031  0.31236869     0.15950
H835        H  0.84499274  0.42341210  0.29095056     0.15660
N836        N  0.78356342  0.43079494  0.38763529     0.74760
O837        O  0.84393998  0.61000514  0.19789405    -0.38690
O838        O  0.79423228  0.65995633  0.26286329    -0.38640
O839        O  0.81902154  0.38856818  0.38377581    -0.39340
O840        O  0.77611994  0.45473144  0.43615295    -0.39410
C841        C  0.05853887  0.68109289  0.77635205    -0.11690
C842        C  0.00281302  0.65923956  0.77259690     0.05320
C843        C  0.95729599  0.68779773  0.80436599    -0.06980
C844        C  0.96920843  0.73357167  0.84205676    -0.07720
C845        C  0.02112480  0.76418105  0.83644187    -0.02270
C846        C  0.06831064  0.73318633  0.80617749     0.04540
N847        N  0.12610485  0.75455792  0.80309010     0.67050
H848        H  0.09505494  0.65734767  0.75640628     0.15950
H849        H  0.93338623  0.75132350  0.86716105     0.15660
N850        N  0.89797644  0.67438758  0.79386165     0.74760
O851        O  0.15421940  0.75397223  0.75543120    -0.38690
O852        O  0.15420370  0.75584171  0.84822410    -0.38640
O853        O  0.88564411  0.65221009  0.74620626    -0.39340
O854        O  0.85725519  0.69562443  0.82576100    -0.39410
C855        C  0.95865179  0.24575587  0.83090939    -0.11690
C856        C  0.01349763  0.22294616  0.84378942     0.05320
C857        C  0.06083964  0.25879442  0.82791593    -0.06980
C858        C  0.05376284  0.30210037  0.78739571    -0.07720
C859        C  0.99881977  0.32080112  0.77229797    -0.02270
C860        C  0.95072534  0.29509646  0.79932222     0.04540
N861        N  0.89434076  0.32189868  0.80162687     0.67050
H862        H  0.92103243  0.22161884  0.83881412     0.15950
H863        H  0.09067494  0.32736303  0.77468653     0.15660
N864        N  0.11080529  0.26265970  0.86120354     0.74760
O865        O  0.85045176  0.29069610  0.79959153    -0.38690
O866        O  0.88839731  0.37075646  0.82539688    -0.38640
O867        O  0.15992470  0.25938441  0.83540181    -0.39340
O868        O  0.10545082  0.29451944  0.90535429    -0.39410
C869        C  0.73798359  0.44191624  0.67603780    -0.11690
C870        C  0.71873811  0.49411837  0.65136546     0.05320
C871        C  0.76072801  0.53855616  0.65143366    -0.06980
C872        C  0.81076681  0.53377423  0.68283725    -0.07720
C873        C  0.82377157  0.48613457  0.71539113    -0.02270
C874        C  0.78764634  0.43820153  0.70965069     0.04540
N875        N  0.79544830  0.38762234  0.74235176     0.67050
H876        H  0.70896121  0.40597758  0.67799723     0.15950
H877        H  0.84064254  0.56919446  0.68158196     0.15660
N878        N  0.75576601  0.59039287  0.62115759     0.74760
O879        O  0.78957085  0.33952570  0.71785141    -0.38690
O880        O  0.78528277  0.39137533  0.79586410    -0.38640
O881        O  0.73729088  0.63410693  0.64925887    -0.39340
O882        O  0.79371520  0.59746145  0.58154457    -0.39410
C883        C  0.70492335  0.54030353  0.18302853    -0.11690
C884        C  0.74068651  0.49266211  0.16570723     0.05320
C885        C  0.73223202  0.44149200  0.19716510    -0.06980
C886        C  0.68987977  0.44043907  0.24379258    -0.07720
C887        C  0.65917089  0.49051714  0.26504728    -0.02270
C888        C  0.65931018  0.53663022  0.22540637     0.04540
N889        N  0.60552480  0.56423668  0.21145999     0.67050
H890        H  0.70485494  0.57712293  0.15495496     0.15950
H891        H  0.68890033  0.40290080  0.27048046     0.15660
N892        N  0.77246157  0.39357865  0.18919121     0.74760
O893        O  0.60666305  0.60906588  0.18159652    -0.38690
O894        O  0.56061316  0.53428612  0.21041267    -0.38640
O895        O  0.81669740  0.39739553  0.15581406    -0.39340
O896        O  0.77009748  0.35203575  0.22349421    -0.39410
C897        C  0.67934808  0.56305014  0.74758902    -0.11690
C898        C  0.64767775  0.51636081  0.72637531     0.05320
C899        C  0.63908661  0.47292529  0.76766516    -0.06980
C900        C  0.68227853  0.46288559  0.80863927    -0.07720
C901        C  0.72465897  0.50399213  0.82154001    -0.02270
C902        C  0.72157467  0.55572023  0.79027329     0.04540
N903        N  0.76567798  0.59767234  0.79599599     0.67050
H904        H  0.67874301  0.60196980  0.72364998     0.15950
H905        H  0.67509500  0.42876542  0.83919027     0.15660
N906        N  0.58092032  0.46776840  0.79048930     0.74760
O907        O  0.76288723  0.64419279  0.76896482    -0.38690
O908        O  0.81401863  0.58190494  0.81440432    -0.38640
O909        O  0.56750253  0.42508700  0.82063300    -0.39340
O910        O  0.55035703  0.51326539  0.79671902    -0.39410
C911        C  0.77964850  0.70244484  0.04550695    -0.11690
C912        C  0.80128598  0.66543392  0.00233439     0.05320
C913        C  0.85601791  0.68017771  0.97512484    -0.06980
C914        C  0.87872875  0.73514430  0.98286458    -0.07720
C915        C  0.85002703  0.77779776  0.01653725    -0.02270
C916        C  0.80480925  0.75649377  0.05590282     0.04540
N917        N  0.77965237  0.79001625  0.10328202     0.67050
H918        H  0.74356039  0.68820039  0.07250580     0.15950
H919        H  0.91814346  0.74377530  0.96007016     0.15660
N920        N  0.89128936  0.63971260  0.94097883     0.74760
O921        O  0.73260002  0.77555251  0.12792120    -0.38690
O922        O  0.80844444  0.82758297  0.12730749    -0.38640
O923        O  0.86911207  0.60825685  0.90378195    -0.39340
O924        O  0.94584384  0.63885362  0.94449108    -0.39410
C925        C  0.82160855  0.25377583  0.05222834    -0.11690
C926        C  0.85629043  0.22975900  0.00639171     0.05320
C927        C  0.86955054  0.26994104  0.96366940    -0.06980
C928        C  0.82385132  0.30768402  0.94821750    -0.07720
C929        C  0.78032136  0.32676724  0.98964777    -0.02270
C930        C  0.78213306  0.30037498  0.04410211     0.04540
N931        N  0.74198336  0.31638460  0.09042216     0.67050
H932        H  0.81441607  0.22715825  0.08913681     0.15950
H933        H  0.83168312  0.33434956  0.91122562     0.15660
N934        N  0.92482201  0.29667255  0.96721836     0.74760
O935        O  0.71002878  0.36089163  0.08865471    -0.38690
O936        O  0.73753059  0.28460397  0.13360999    -0.38640
O937        O  0.94444222  0.32582863  0.92586594    -0.39340
O938        O  0.94379205  0.30638049  0.01647100    -0.39410
C939        C  0.24766084  0.43892071  0.70368395    -0.11690
C940        C  0.26472832  0.49036272  0.67575925     0.05320
C941        C  0.22366647  0.53652316  0.68361000    -0.06980
C942        C  0.18239193  0.53738641  0.72938487    -0.07720
C943        C  0.16552715  0.48706558  0.75597206    -0.02270
C944        C  0.19885362  0.43669865  0.74265260     0.04540
N945        N  0.18763375  0.38484978  0.77338561     0.67050
H946        H  0.27729606  0.40236636  0.70218200     0.15950
H947        H  0.15273468  0.57429877  0.73295062     0.15660
N948        N  0.20233317  0.56467362  0.63583249     0.74760
O949        O  0.20766579  0.33714826  0.75411765    -0.38690
O950        O  0.16429522  0.38754080  0.82337679    -0.38640
O951        O  0.16050765  0.53979340  0.61341008    -0.39340
O952        O  0.20084598  0.61872849  0.63826416    -0.39410
C953        C  0.31334796  0.55490799  0.25588233    -0.11690
C954        C  0.34565365  0.50667520  0.27510925     0.05320
C955        C  0.35867526  0.46360577  0.23278256    -0.06980
C956        C  0.31867435  0.45662060  0.18932335    -0.07720
C957        C  0.27883765  0.50071583  0.17543721    -0.02270
C958        C  0.27917771  0.55277207  0.20701963     0.04540
N959        N  0.24097253  0.60109882  0.19492441     0.67050
H960        H  0.30667710  0.59137201  0.28488274     0.15950
H961        H  0.32575737  0.42128399  0.15881584     0.15660
N962        N  0.41824033  0.44751291  0.21707610     0.74760
O963        O  0.23920000  0.64508645  0.22737354    -0.38690
O964        O  0.20360966  0.59763902  0.15695177    -0.38640
O965        O  0.42909742  0.41486398  0.17401026    -0.39340
O966        O  0.45908294  0.47774803  0.23394248    -0.39410
C967        C  0.20116214  0.75748759  0.05673376    -0.11690
C968        C  0.16519983  0.77443484  0.01138708     0.05320
C969        C  0.15189783  0.72963456  0.97284516    -0.06980
C970        C  0.19231999  0.68377890  0.96454561    -0.07720
C971        C  0.23346455  0.66976169  0.00575726    -0.02270
C972        C  0.23570724  0.70634157  0.05445932     0.04540
N973        N  0.27616825  0.69551858  0.09906899     0.67050
H974        H  0.21135897  0.78923716  0.08835907     0.15950
H975        H  0.18274581  0.65121345  0.93329474     0.15660
N976        N  0.09232004  0.71633325  0.96311196     0.74760
O977        O  0.27464928  0.72662762  0.14398606    -0.38690
O978        O  0.31786491  0.65985539  0.09106788    -0.38640
O979        O  0.08030900  0.68182563  0.92324011    -0.39340
O980        O  0.05347764  0.72836596  0.00140992    -0.39410
C981        C  0.17934550  0.31147130  0.04325909    -0.11690
C982        C  0.22549372  0.32619323  0.00471242     0.05320
C983        C  0.23460017  0.29089297  0.95514475    -0.06980
C984        C  0.20229175  0.23991044  0.95017343    -0.07720
C985        C  0.16074710  0.22163801  0.99300957    -0.02270
C986        C  0.14142058  0.26584505  0.03221881     0.04540
N987        N  0.08030769  0.27969100  0.03898755     0.67050
H988        H  0.16569165  0.34305459  0.07581965     0.15950
H989        H  0.21489174  0.21034901  0.91591296     0.15660
N990        N  0.27783048  0.30375166  0.91098332     0.74760
O991        O  0.06317496  0.32288674  0.06897417    -0.38690
O992        O  0.04642093  0.26077584  0.00245674    -0.38640
O993        O  0.32130945  0.33317522  0.92240100    -0.39340
O994        O  0.27696840  0.27917226  0.86238930    -0.39410
C995        C  0.30818825  0.55768165  0.76343805    -0.11690
C996        C  0.34054257  0.51002646  0.73936484     0.05320
C997        C  0.34940675  0.46456687  0.77764665    -0.06980
C998        C  0.30538497  0.45446576  0.81959658    -0.07720
C999        C  0.26678411  0.49908966  0.83921697    -0.02270
C1000       C  0.27094481  0.55275376  0.81254836     0.04540
N1001       N  0.23122093  0.59936860  0.82897518     0.67050
H1002       H  0.30183187  0.59492481  0.73712454     0.15950
H1003       H  0.31034659  0.41755243  0.84693063     0.15660
N1004       N  0.40779313  0.45077917  0.79307169     0.74760
O1005       O  0.23961099  0.64915647  0.81008283    -0.38690
O1006       O  0.18175806  0.58848780  0.85083248    -0.38640
O1007       O  0.44720568  0.48534974  0.77987626    -0.39340
O1008       O  0.41749419  0.41450663  0.83159914    -0.39410
loop_ 
_geom_bond_atom_site_label_1 
_geom_bond_atom_site_label_2 
_geom_bond_distance 
_geom_bond_site_symmetry_2 
_ccdc_geom_bond_type 
O1           Ni9   1.974       .  S
O1           C11   1.298       .  A
O2           Ni9   1.979   1_556  S
O2           C12   1.298       .  A
O3           Ni9   1.845       .  S
O3           C13   1.260       .  A
O4           Ni9   1.837       .  S
O4           C14   1.259       .  A
O5          Ni10   1.992       .  S
O5           C14   1.301       .  A
O6          Ni10   2.004       .  S
O6           C13   1.304       .  A
O7          Ni10   1.800   1_556  S
O7           C12   1.252       .  A
O8          Ni10   1.811       .  S
O8           C11   1.253       .  A
Ni9         Ni10   2.385       .  S
C11         C957   1.461       .  S
C12         C999   1.458       .  S
C13         C982   1.502       .  S
C14         C971   1.483       .  S
C15         C269   1.593       .  S
C15         C301   1.594       .  S
C15         C940   1.596       .  S
C15         C996   1.573       .  S
O16         Ni24   2.019       .  S
O16          C26   1.310       .  A
O17         Ni24   2.027   1_554  S
O17          C27   1.311   1_554  A
O18         Ni24   1.841       .  S
O18          C28   1.252       .  A
O19         Ni24   1.825   1_554  S
O19          C29   1.252       .  A
O20         Ni25   2.033   1_554  S
O20          C29   1.311       .  A
O21         Ni25   2.044       .  S
O21          C28   1.315       .  A
O22         Ni25   1.801       .  S
O22          C27   1.242       .  A
O23         Ni25   1.790       .  S
O23          C26   1.244       .  A
Ni24        Ni25   2.371       .  S
C26         C929   1.489       .  S
C27         C912   1.501   1_556  S
C28         C901   1.521       .  S
C29         C884   1.507       .  S
C30         C312   1.611       .  S
C30         C330   1.591       .  S
C30         C870   1.583       .  S
C30         C898   1.607       .  S
O31         Ni39   1.990       .  S
O31          C41   1.300   1_455  A
O32         Ni39   1.952   1_655  S
O32          C42   1.290       .  A
O33         Ni39   1.860   1_655  S
O33          C43   1.267       .  A
O34         Ni39   1.836       .  S
O34          C44   1.261       .  A
O35         Ni40   1.979   1_455  S
O35          C44   1.297       .  A
O36         Ni40   1.987       .  S
O36          C43   1.298       .  A
O37         Ni40   1.817       .  S
O37          C42   1.257       .  A
O38         Ni40   1.852       .  S
O38          C41   1.262       .  A
Ni39        Ni40   2.385   1_455  S
C41         C842   1.485   1_655  S
C42         C859   1.441       .  S
C43         C873   1.487       .  S
C44         C943   1.466       .  S
O45         Ni53   2.016       .  S
O45          C55   1.306       .  A
O46         Ni53   2.009   1_655  S
O46          C56   1.306       .  A
O47         Ni53   1.830       .  S
O47          C57   1.250       .  A
O48         Ni53   1.815       .  S
O48          C58   1.252   1_455  A
O49         Ni54   2.000   1_655  S
O49          C58   1.303       .  A
O50         Ni54   1.999       .  S
O50          C57   1.305       .  A
O51         Ni54   1.824   1_655  S
O51          C56   1.252       .  A
O52         Ni54   1.833       .  S
O52          C55   1.256       .  A
Ni53        Ni54   2.380       .  S
C55         C789   1.499       .  S
C56         C831   1.483       .  S
C57         C800   1.487       .  S
C58         C814   1.474       .  S
C59         C278   1.605       .  S
C59         C319   1.603       .  S
C59         C828   1.602       .  S
C59         C887   1.605       .  S
C60         C283   1.585       .  S
C60         C294   1.587       .  S
C60         C786   1.599       .  S
C60         C954   1.581       .  S
O61         Ni69   1.983       .  S
O61          C71   1.299       .  A
O62         Ni69   1.999   1_554  S
O62          C72   1.301       .  A
O63         Ni69   1.821       .  S
O63          C73   1.257       .  A
O64         Ni69   1.828   1_554  S
O64          C74   1.258   1_554  A
O65         Ni70   2.003   1_556  S
O65          C74   1.302       .  A
O66         Ni70   1.979       .  S
O66          C73   1.298   1_554  A
O67         Ni70   1.854       .  S
O67          C72   1.263       .  A
O68         Ni70   1.843   1_556  S
O68          C71   1.259       .  A
Ni69        Ni70   2.381   1_556  S
C71         C744   1.472       .  S
C72         C730   1.494       .  S
C73         C772   1.477       .  S
C74         C758   1.493       .  S
C75         C303   1.620       .  S
C75         C328   1.583       .  S
C75         C716   1.598       .  S
C75         C747   1.595       .  S
O76         Ni84   2.008   1_565  S
O76          C86   1.306       .  A
O77         Ni84   2.011       .  S
O77          C87   1.306       .  A
O78         Ni84   1.794   1_565  S
O78          C88   1.248       .  A
O79         Ni84   1.804       .  S
O79          C89   1.247       .  A
O80         Ni85   1.981   1_545  S
O80          C89   1.302       .  A
O81         Ni85   1.996       .  S
O81          C88   1.303       .  A
O82         Ni85   1.840   1_545  S
O82          C87   1.255       .  A
O83         Ni85   1.827       .  S
O83          C86   1.252       .  A
Ni84        Ni85   2.383   1_545  S
C86         C719   1.484       .  S
C87         C677   1.493       .  S
C88         C702   1.458       .  S
C89         C688   1.458       .  S
O90         Ni98   2.004       .  S
O90         C100   1.305       .  A
O91         Ni98   2.013   1_554  S
O91         C101   1.307       .  A
O92         Ni98   1.799   1_554  S
O92         C102   1.247   1_554  A
O93         Ni98   1.793       .  S
O93         C103   1.245   1_556  A
O94         Ni99   1.995   1_554  S
O94         C103   1.303       .  A
O95         Ni99   1.991       .  S
O95         C102   1.303       .  A
O96         Ni99   1.824   1_554  S
O96         C101   1.251       .  A
O97         Ni99   1.823       .  S
O97         C100   1.251       .  A
Ni98        Ni99   2.385       .  S
C100        C663   1.478       .  S
C101        C618   1.484       .  S
C102        C646   1.463       .  S
C103        C635   1.461       .  S
C104        C267   1.592       .  S
C104        C310   1.605       .  S
C104        C660   1.575       .  S
C104        C674   1.606       .  S
O105       Ni113   2.002   1_565  S
O105        C115   1.305       .  A
O106       Ni113   1.977       .  S
O106        C116   1.297       .  A
O107       Ni113   1.838   1_565  S
O107        C117   1.257       .  A
O108       Ni113   1.841       .  S
O108        C118   1.260       .  A
O109       Ni114   2.013       .  S
O109        C118   1.305       .  A
O110       Ni114   2.007       .  S
O110        C117   1.304   1_545  A
O111       Ni114   1.808       .  S
O111        C116   1.253       .  A
O112       Ni114   1.838   1_565  S
O112        C115   1.254       .  A
Ni113      Ni114   2.381       .  S
C115        C604   1.487       .  S
C116        C562   1.454       .  S
C117        C576   1.489   1_565  S
C118        C593   1.496       .  S
C119        C285   1.579       .  S
C119        C321   1.617       .  S
C119        C607   1.598       .  S
C119        C733   1.608       .  S
C120        C274   1.585       .  S
C120        C292   1.580       .  S
C120        C565   1.576       .  S
C120        C621   1.594       .  S
O121       Ni129   2.002       .  S
O121        C131   1.306       .  A
O122       Ni129   2.013   1_545  S
O122        C132   1.308       .  A
O123       Ni129   1.835       .  S
O123        C133   1.252       .  A
O124       Ni129   1.810   1_545  S
O124        C134   1.250   1_545  A
O125       Ni130   2.010       .  S
O125        C134   1.305       .  A
O126       Ni130   2.030       .  S
O126        C133   1.311       .  A
O127       Ni130   1.787   1_545  S
O127        C132   1.241       .  A
O128       Ni130   1.768       .  S
O128        C131   1.237       .  A
Ni129      Ni130   2.372       .  S
C131        C551   1.472       .  S
C132        C506   1.482       .  S
C133        C534   1.507       .  S
C134        C520   1.483       .  S
C135        C287   1.597       .  S
C135        C305   1.581       .  S
C135        C495   1.591       .  S
C135        C548   1.566       .  S
O136       Ni144   2.034   1_565  S
O136        C146   1.313       .  A
O137       Ni144   2.023       .  S
O137        C147   1.310       .  A
O138       Ni144   1.801   1_565  S
O138        C148   1.244       .  A
O139       Ni144   1.784       .  S
O139        C149   1.242       .  A
O140       Ni145   2.017       .  S
O140        C149   1.309       .  A
O141       Ni145   2.016       .  S
O141        C148   1.309   1_545  A
O142       Ni145   1.816       .  S
O142        C147   1.248       .  A
O143       Ni145   1.814   1_565  S
O143        C146   1.247       .  A
Ni144      Ni145   2.378       .  S
C146        C450   1.502       .  S
C147        C436   1.494       .  S
C148        C464   1.484       .  S
C149        C478   1.480       .  S
C150        C323   1.594       .  S
C150        C332   1.615       .  S
C150        C425   1.600       .  S
C150        C453   1.596       .  S
O151       Ni159   1.981   1_655  S
O151        C161   1.298       .  A
O152       Ni159   1.998       .  S
O152        C162   1.303       .  A
O153       Ni159   1.848   1_655  S
O153        C163   1.259       .  A
O154       Ni159   1.832       .  S
O154        C164   1.256       .  A
O155       Ni160   2.009   1_455  S
O155        C164   1.305       .  A
O156       Ni160   2.003       .  S
O156        C163   1.304       .  A
O157       Ni160   1.825       .  S
O157        C162   1.254   1_655  A
O158       Ni160   1.826       .  S
O158        C161   1.256       .  A
Ni159      Ni160   2.379   1_455  S
C161        C408   1.470       .  S
C162        C394   1.475       .  S
C163        C422   1.495       .  S
C164        C492   1.490       .  S
O165       Ni173   2.005   1_455  S
O165        C175   1.304       .  A
O166       Ni173   1.991       .  S
O166        C176   1.303       .  A
O167       Ni173   1.812       .  S
O167        C177   1.251       .  A
O168       Ni173   1.812       .  S
O168        C178   1.250   1_655  A
O169       Ni174   2.005   1_455  S
O169        C178   1.305       .  A
O170       Ni174   1.988       .  S
O170        C177   1.301       .  A
O171       Ni174   1.802       .  S
O171        C176   1.249       .  A
O172       Ni174   1.815   1_455  S
O172        C175   1.252       .  A
Ni173      Ni174   2.384       .  S
C175        C338   1.480       .  S
C176        C383   1.466       .  S
C177        C366   1.461       .  S
C178        C352   1.476       .  S
C179        C276   1.595       .  S
C179        C314   1.591       .  S
C179        C380   1.579       .  S
C179        C439   1.605       .  S
C180        C265   1.598       .  S
C180        C296   1.620       .  S
C180        C341   1.600       .  S
C180        C509   1.590       .  S
C181        C195   1.594       .  S
C181        C260   1.581   1_655  S
C181        C369   1.589   1_655  S
C181        C817   1.584       .  S
C182        C193   1.563       .  S
C182        C222   1.606   1_545  S
C182        C481   1.587       .  S
C182        C579   1.591   1_545  S
C183        C204   1.572       .  S
C183        C224   1.586   1_455  S
C183        C411   1.575   1_455  S
C183        C803   1.592       .  S
C184        C206   1.559       .  S
C184        C256   1.602   1_565  S
C184        C537   1.604       .  S
C184        C590   1.590   1_565  S
C185        C229   1.575       .  S
C185        C249   1.576   1_455  S
C185        C397   1.579       .  S
C185        C845   1.590       .  S
C186        C211   1.579   1_565  S
C186        C231   1.581       .  S
C186        C523   1.589       .  S
C186        C705   1.579       .  S
C187        C213   1.556       .  S
C187        C242   1.610   1_455  S
C187        C355   1.612       .  S
C187        C856   1.565       .  S
C188        C238   1.598   1_565  S
C188        C247   1.610       .  S
C188        C467   1.604   1_565  S
C188        C691   1.594       .  S
C189        C215   1.621   1_554  S
C189        C258   1.587       .  S
C189        C649   1.592       .  S
C189        C985   1.605   1_554  S
C190        C202   1.593   1_556  S
C190        C233   1.582       .  S
C190        C761   1.587       .  S
C190        C968   1.589   1_556  S
C191        C197   1.594   1_556  S
C191        C240   1.590       .  S
C191        C632   1.600       .  S
C191        C926   1.583   1_556  S
C192        C220   1.563   1_556  S
C192        C251   1.606       .  S
C192        C775   1.580       .  S
C192        C915   1.609   1_556  S
C193        C194   1.433       .  A
C193        C198   1.417       .  A
C194        C195   1.413       .  A
C194        H199   1.081       .  S
C195        C196   1.428       .  A
C196        C197   1.436       .  A
C196        H200   1.081       .  S
C197        C198   1.425       .  A
C198        H201   1.080       .  S
C202        C203   1.432       .  A
C202        C207   1.427       .  A
C203        C204   1.427       .  A
C203        H208   1.076       .  S
C204        C205   1.393       .  A
C205        C206   1.419       .  A
C205        H209   1.079       .  S
C206        C207   1.428       .  A
C207        H210   1.067       .  S
C211        C212   1.401       .  A
C211        C216   1.448       .  A
C212        C213   1.403       .  A
C212        H217   1.067       .  S
C213        C214   1.419       .  A
C214        C215   1.429       .  A
C214        H218   1.068       .  S
C215        C216   1.444       .  A
C216        H219   1.077       .  S
C220        C221   1.412       .  A
C220        C225   1.419       .  A
C221        C222   1.428       .  A
C221        H226   1.062       .  S
C222        C223   1.433       .  A
C223        C224   1.440       .  A
C223        H227   1.080       .  S
C224        C225   1.407       .  A
C225        H228   1.079       .  S
C229        C230   1.416       .  A
C229        C234   1.425       .  A
C230        C231   1.425       .  A
C230        H235   1.079       .  S
C231        C232   1.409       .  A
C232        C233   1.425       .  A
C232        H236   1.070       .  S
C233        C234   1.416       .  A
C234        H237   1.062       .  S
C238        C239   1.427       .  A
C238        C243   1.436       .  A
C239        C240   1.426       .  A
C239        H244   1.078       .  S
C240        C241   1.422       .  A
C241        C242   1.436       .  A
C241        H245   1.079       .  S
C242        C243   1.433       .  A
C243        H246   1.082       .  S
C247        C248   1.422       .  A
C247        C252   1.424       .  A
C248        C249   1.440       .  A
C248        H253   1.080       .  S
C249        C250   1.425       .  A
C250        C251   1.417       .  A
C250        H254   1.072       .  S
C251        C252   1.433       .  A
C252        H255   1.058       .  S
C256        C257   1.428       .  A
C256        C261   1.418       .  A
C257        C258   1.439       .  A
C257        H262   1.082       .  S
C258        C259   1.420       .  A
C259        C260   1.419       .  A
C259        H263   1.061       .  S
C260        C261   1.429       .  A
C261        H264   1.068       .  S
C265        C266   1.434       .  A
C265        C270   1.424       .  A
C266        C267   1.424       .  A
C266        H271   1.072       .  S
C267        C268   1.422       .  A
C268        C269   1.421       .  A
C268        H272   1.064       .  S
C269        C270   1.438       .  A
C270        H273   1.073       .  S
C274        C275   1.422       .  A
C274        C279   1.429       .  A
C275        C276   1.409       .  A
C275        H280   1.065       .  S
C276        C277   1.441       .  A
C277        C278   1.433       .  A
C277        H281   1.069       .  S
C278        C279   1.431       .  A
C279        H282   1.081       .  S
C283        C284   1.438       .  A
C283        C288   1.410       .  A
C284        C285   1.412       .  A
C284        H289   1.074       .  S
C285        C286   1.429       .  A
C286        C287   1.422       .  A
C286        H290   1.076       .  S
C287        C288   1.433       .  A
C288        H291   1.069       .  S
C292        C293   1.414       .  A
C292        C297   1.433       .  A
C293        C294   1.400       .  A
C293        H298   1.060       .  S
C294        C295   1.433       .  A
C295        C296   1.441       .  A
C295        H299   1.081       .  S
C296        C297   1.439       .  A
C297        H300   1.080       .  S
C301        C302   1.451       .  A
C301        C306   1.413       .  A
C302        C303   1.436       .  A
C302        H307   1.080       .  S
C303        C304   1.421       .  A
C304        C305   1.451       .  A
C304        H308   1.081       .  S
C305        C306   1.417       .  A
C306        H309   1.059       .  S
C310        C311   1.446       .  A
C310        C315   1.413       .  A
C311        C312   1.443       .  A
C311        H316   1.074       .  S
C312        C313   1.432       .  A
C313        C314   1.421       .  A
C313        H317   1.081       .  S
C314        C315   1.419       .  A
C315        H318   1.078       .  S
C319        C320   1.430       .  A
C319        C324   1.429       .  A
C320        C321   1.436       .  A
C320        H325   1.069       .  S
C321        C322   1.433       .  A
C322        C323   1.436       .  A
C322        H326   1.080       .  S
C323        C324   1.415       .  A
C324        H327   1.064       .  S
C328        C329   1.412       .  A
C328        C333   1.436       .  A
C329        C330   1.413       .  A
C329        H334   1.082       .  S
C330        C331   1.437       .  A
C331        C332   1.444       .  A
C331        H335   1.079       .  S
C332        C333   1.429       .  A
C333        H336   1.080       .  S
C337        C338   1.409       .  A
C337        C342   1.410       .  A
C337        H344   1.086       .  S
C338        C339   1.415       .  A
C339        C340   1.425       .  A
C339        N346   1.442       .  S
C340        C341   1.436       .  A
C340        H345   1.081       .  S
C341        C342   1.419       .  A
C342        N343   1.426       .  S
N343        O347   1.262       .  A
N343        O348   1.256       .  A
N346        O349   1.263       .  A
N346        O350   1.263       .  A
C351        C352   1.386       .  A
C351        C356   1.418       .  A
C351        H358   1.085       .  S
C352        C353   1.415   1_455  A
C353        C354   1.411       .  A
C353        N360   1.434       .  S
C354        C355   1.412   1_655  A
C354        H359   1.057       .  S
C355        C356   1.459       .  A
C356        N357   1.434       .  S
N357        O361   1.263       .  A
N357        O362   1.248       .  A
N360        O363   1.259       .  A
N360        O364   1.260       .  A
C365        C366   1.377   1_455  A
C365        C370   1.399       .  A
C365        H372   1.085       .  S
C366        C367   1.413       .  A
C367        C368   1.410       .  A
C367        N374   1.423       .  S
C368        C369   1.406   1_655  A
C368        H373   1.075       .  S
C369        C370   1.460       .  A
C370        N371   1.435       .  S
N371        O375   1.261       .  A
N371        O376   1.247       .  A
N374        O377   1.260       .  A
N374        O378   1.263       .  A
C379        C380   1.414       .  A
C379        C384   1.404       .  A
C379        H386   1.066       .  S
C380        C381   1.445       .  A
C381        C382   1.406       .  A
C381        N388   1.438       .  S
C382        C383   1.378       .  A
C382        H387   1.076       .  S
C383        C384   1.420       .  A
C384        N385   1.437       .  S
N385        O389   1.262       .  A
N385        O390   1.262       .  A
N388        O391   1.255       .  A
N388        O392   1.261       .  A
C393        C394   1.381   1_655  A
C393        C398   1.403       .  A
C393        H400   1.083       .  S
C394        C395   1.426       .  A
C395        C396   1.410       .  A
C395        N402   1.434       .  S
C396        C397   1.410       .  A
C396        H401   1.075       .  S
C397        C398   1.445   1_455  A
C398        N399   1.434       .  S
N399        O403   1.259       .  A
N399        O404   1.252       .  A
N402        O405   1.262       .  A
N402        O406   1.256       .  A
C407        C408   1.378       .  A
C407        C412   1.402       .  A
C407        H414   1.085       .  S
C408        C409   1.414   1_655  A
C409        C410   1.400       .  A
C409        N416   1.424       .  S
C410        C411   1.403   1_455  A
C410        H415   1.070       .  S
C411        C412   1.449       .  A
C412        N413   1.421       .  S
N413        O417   1.262       .  A
N413        O418   1.259       .  A
N416        O419   1.259       .  A
N416        O420   1.261       .  A
C421        C422   1.410       .  A
C421        C426   1.417       .  A
C421        H428   1.085       .  S
C422        C423   1.415       .  A
C423        C424   1.419       .  A
C423        N430   1.442       .  S
C424        C425   1.431       .  A
C424        H429   1.081       .  S
C425        C426   1.421       .  A
C426        N427   1.430       .  S
N427        O431   1.262       .  A
N427        O432   1.260       .  A
N430        O433   1.260       .  A
N430        O434   1.262       .  A
C435        C436   1.420       .  A
C435        C440   1.421       .  A
C435        H442   1.085       .  S
C436        C437   1.422       .  A
C437        C438   1.423       .  A
C437        N444   1.445       .  S
C438        C439   1.428       .  A
C438        H443   1.082       .  S
C439        C440   1.416       .  A
C440        N441   1.443       .  S
N441        O445   1.263       .  A
N441        O446   1.262       .  A
N444        O447   1.261       .  A
N444        O448   1.263       .  A
C449        C450   1.395       .  A
C449        C454   1.416       .  A
C449        H456   1.069       .  S
C450        C451   1.427       .  A
C451        C452   1.414       .  A
C451        N458   1.437       .  S
C452        C453   1.412       .  A
C452        H457   1.068       .  S
C453        C454   1.452       .  A
C454        N455   1.443       .  S
N455        O459   1.256       .  A
N455        O460   1.263       .  A
N458        O461   1.262       .  A
N458        O462   1.262       .  A
C463        C464   1.377   1_545  A
C463        C468   1.410       .  A
C463        H470   1.083       .  S
C464        C465   1.428       .  A
C465        C466   1.418       .  A
C465        N472   1.437       .  S
C466        C467   1.412   1_565  A
C466        H471   1.070       .  S
C467        C468   1.459       .  A
C468        N469   1.429       .  S
N469        O473   1.263       .  A
N469        O474   1.248       .  A
N472        O475   1.263       .  A
N472        O476   1.261       .  A
C477        C478   1.382       .  A
C477        C482   1.416       .  A
C477        H484   1.084       .  S
C478        C479   1.428   1_545  A
C479        C480   1.394       .  A
C479        N486   1.435       .  S
C480        C481   1.395   1_565  A
C480        H485   1.064       .  S
C481        C482   1.466       .  A
C482        N483   1.448       .  S
N483        O487   1.264       .  A
N483        O488   1.252       .  A
N486        O489   1.256       .  A
N486        O490   1.263       .  A
C491        C492   1.414       .  A
C491        C496   1.412       .  A
C491        H498   1.085       .  S
C492        C493   1.406       .  A
C493        C494   1.410       .  A
C493        N500   1.427       .  S
C494        C495   1.425       .  A
C494        H499   1.066       .  S
C495        C496   1.399       .  A
C496        N497   1.426       .  S
N497        O501   1.266       .  A
N497        O502   1.256       .  A
N500        O503   1.262       .  A
N500        O504   1.260       .  A
C505        C506   1.390       .  A
C505        C510   1.417       .  A
C505        H512   1.084       .  S
C506        C507   1.434       .  A
C507        C508   1.395       .  A
C507        N514   1.445       .  S
C508        C509   1.393       .  A
C508        H513   1.050       .  S
C509        C510   1.458       .  A
C510        N511   1.446       .  S
N511        O515   1.263       .  A
N511        O516   1.254       .  A
N514        O517   1.258       .  A
N514        O518   1.263       .  A
C519        C520   1.418   1_545  A
C519        C524   1.417       .  A
C519        H526   1.083       .  S
C520        C521   1.419       .  A
C521        C522   1.418       .  A
C521        N528   1.438       .  S
C522        C523   1.422       .  A
C522        H527   1.082       .  S
C523        C524   1.410   1_565  A
C524        N525   1.448       .  S
N525        O529   1.263       .  A
N525        O530   1.264       .  A
N528        O531   1.262       .  A
N528        O532   1.262       .  A
C533        C534   1.414   1_545  A
C533        C538   1.416       .  A
C533        H540   1.084       .  S
C534        C535   1.425       .  A
C535        C536   1.423       .  A
C535        N542   1.435       .  S
C536        C537   1.412       .  A
C536        H541   1.076       .  S
C537        C538   1.410   1_565  A
C538        N539   1.442       .  S
N539        O543   1.263       .  A
N539        O544   1.263       .  A
N542        O545   1.262       .  A
N542        O546   1.256       .  A
C547        C548   1.392       .  A
C547        C552   1.377       .  A
C547        H554   1.060       .  S
C548        C549   1.459       .  A
C549        C550   1.407       .  A
C549        N556   1.448       .  S
C550        C551   1.383       .  A
C550        H555   1.080       .  S
C551        C552   1.434       .  A
C552        N553   1.437       .  S
N553        O557   1.263       .  A
N553        O558   1.255       .  A
N556        O559   1.255       .  A
N556        O560   1.262       .  A
C561        C562   1.383       .  A
C561        C566   1.405       .  A
C561        H568   1.085       .  S
C562        C563   1.408       .  A
C563        C564   1.407       .  A
C563        N570   1.433       .  S
C564        C565   1.400       .  A
C564        H569   1.058       .  S
C565        C566   1.441       .  A
C566        N567   1.418       .  S
N567        O571   1.259       .  A
N567        O572   1.257       .  A
N570        O573   1.262       .  A
N570        O574   1.263       .  A
C575        C576   1.418       .  A
C575        C580   1.417       .  A
C575        H582   1.084       .  S
C576        C577   1.411   1_545  A
C577        C578   1.413       .  A
C577        N584   1.431       .  S
C578        C579   1.421       .  A
C578        H583   1.072       .  S
C579        C580   1.413   1_565  A
C580        N581   1.432       .  S
N581        O585   1.264   1_545  A
N581        O586   1.256       .  A
N584        O587   1.263       .  A
N584        O588   1.261       .  A
C589        C590   1.410       .  A
C589        C594   1.417       .  A
C589        H596   1.067       .  S
C590        C591   1.426   1_545  A
C591        C592   1.402       .  A
C591        N598   1.410       .  S
C592        C593   1.392   1_565  A
C592        H597   1.088       .  S
C593        C594   1.423       .  A
C594        N595   1.428       .  S
N595        O599   1.263       .  A
N595        O600   1.258       .  A
N598        O601   1.260       .  A
N598        O602   1.259       .  A
C603        C604   1.384       .  A
C603        C608   1.421       .  A
C603        H610   1.083       .  S
C604        C605   1.413       .  A
C605        C606   1.399       .  A
C605        N612   1.427       .  S
C606        C607   1.407       .  A
C606        H611   1.066       .  S
C607        C608   1.471       .  A
C608        N609   1.451       .  S
N609        O613   1.264       .  A
N609        O614   1.251       .  A
N612        O615   1.262       .  A
N612        O616   1.260       .  A
C617        C618   1.392       .  A
C617        C622   1.419       .  A
C617        H624   1.085       .  S
C618        C619   1.415       .  A
C619        C620   1.406       .  A
C619        N626   1.422       .  S
C620        C621   1.403       .  A
C620        H625   1.070       .  S
C621        C622   1.458       .  A
C622        N623   1.442       .  S
N623        O627   1.260       .  A
N623        O628   1.257       .  A
N626        O629   1.259       .  A
N626        O630   1.258       .  A
C631        C632   1.417   1_554  A
C631        C636   1.403       .  A
C631        H638   1.061       .  S
C632        C633   1.455       .  A
C633        C634   1.409       .  A
C633        N640   1.434       .  S
C634        C635   1.379   1_556  A
C634        H639   1.077       .  S
C635        C636   1.413       .  A
C636        N637   1.438       .  S
N637        O641   1.261       .  A
N637        O642   1.261       .  A
N640        O643   1.244       .  A
N640        O644   1.263       .  A
C645        C646   1.381   1_554  A
C645        C650   1.407       .  A
C645        H652   1.084       .  S
C646        C647   1.423       .  A
C647        C648   1.404       .  A
C647        N654   1.440       .  S
C648        C649   1.402   1_556  A
C648        H653   1.065       .  S
C649        C650   1.464       .  A
C650        N651   1.446       .  S
N651        O655   1.250       .  A
N651        O656   1.263       .  A
N654        O657   1.263       .  A
N654        O658   1.261       .  A
C659        C660   1.418       .  A
C659        C664   1.407       .  A
C659        H666   1.080       .  S
C660        C661   1.440       .  A
C661        C662   1.412       .  A
C661        N668   1.435       .  S
C662        C663   1.400       .  A
C662        H667   1.082       .  S
C663        C664   1.413       .  A
C664        N665   1.431       .  S
N665        O669   1.262       .  A
N665        O670   1.261       .  A
N668        O671   1.254       .  A
N668        O672   1.259       .  A
C673        C674   1.422       .  A
C673        C678   1.424       .  A
C673        H680   1.080       .  S
C674        C675   1.428       .  A
C675        C676   1.419       .  A
C675        N682   1.435       .  S
C676        C677   1.400       .  A
C676        H681   1.085       .  S
C677        C678   1.424       .  A
C678        N679   1.433       .  S
N679        O683   1.260       .  A
N679        O684   1.259       .  A
N682        O685   1.261       .  A
N682        O686   1.262       .  A
C687        C688   1.371   1_565  A
C687        C692   1.396       .  A
C687        H694   1.082       .  S
C688        C689   1.419       .  A
C689        C690   1.406       .  A
C689        N696   1.433       .  S
C690        C691   1.420   1_545  A
C690        H695   1.068       .  S
C691        C692   1.449       .  A
C692        N693   1.423       .  S
N693        O697   1.263       .  A
N693        O698   1.248       .  A
N696        O699   1.262       .  A
N696        O700   1.259       .  A
C701        C702   1.381   1_545  A
C701        C706   1.401       .  A
C701        H708   1.086       .  S
C702        C703   1.420       .  A
C703        C704   1.409       .  A
C703        N710   1.429       .  S
C704        C705   1.416       .  A
C704        H709   1.077       .  S
C705        C706   1.447   1_565  A
C706        N707   1.432       .  S
N707        O711   1.253       .  A
N707        O712   1.264       .  A
N710        O713   1.261       .  A
N710        O714   1.261       .  A
C715        C716   1.430       .  A
C715        C720   1.422       .  A
C715        H722   1.078       .  S
C716        C717   1.419       .  A
C717        C718   1.414       .  A
C717        N724   1.412       .  S
C718        C719   1.399       .  A
C718        H723   1.081       .  S
C719        C720   1.417       .  A
C720        N721   1.445       .  S
N721        O725   1.261       .  A
N721        O726   1.262       .  A
N724        O727   1.260       .  A
N724        O728   1.259       .  A
C729        C730   1.389       .  A
C729        C734   1.412       .  A
C729        H736   1.086       .  S
C730        C731   1.415       .  A
C731        C732   1.429       .  A
C731        N738   1.439       .  S
C732        C733   1.430       .  A
C732        H737   1.073       .  S
C733        C734   1.431       .  A
C734        N735   1.414       .  S
N735        O739   1.261       .  A
N735        O740   1.259       .  A
N738        O741   1.263       .  A
N738        O742   1.263       .  A
C743        C744   1.382       .  A
C743        C748   1.401       .  A
C743        H750   1.080       .  S
C744        C745   1.412       .  A
C745        C746   1.423       .  A
C745        N752   1.438       .  S
C746        C747   1.425       .  A
C746        H751   1.074       .  S
C747        C748   1.424       .  A
C748        N749   1.406       .  S
N749        O753   1.261       .  A
N749        O754   1.259       .  A
N752        O755   1.259       .  A
N752        O756   1.262       .  A
C757        C758   1.410   1_554  A
C757        C762   1.417       .  A
C757        H764   1.078       .  S
C758        C759   1.416       .  A
C759        C760   1.423       .  A
C759        N766   1.432       .  S
C760        C761   1.422       .  A
C760        H765   1.074       .  S
C761        C762   1.399   1_556  A
C762        N763   1.449       .  S
N763        O767   1.264       .  A
N763        O768   1.260   1_554  A
N766        O769   1.262       .  A
N766        O770   1.261       .  A
C771        C772   1.422   1_554  A
C771        C776   1.405       .  A
C771        H778   1.085       .  S
C772        C773   1.412       .  A
C773        C774   1.409       .  A
C773        N780   1.442       .  S
C774        C775   1.426       .  A
C774        H779   1.083       .  S
C775        C776   1.406   1_556  A
C776        N777   1.445   1_554  S
N777        O781   1.264       .  A
N777        O782   1.258       .  A
N780        O783   1.260       .  A
N780        O784   1.260       .  A
C785        C786   1.422       .  A
C785        C790   1.423       .  A
C785        H792   1.078       .  S
C786        C787   1.420       .  A
C787        C788   1.409       .  A
C787        N794   1.411       .  S
C788        C789   1.405       .  A
C788        H793   1.086       .  S
C789        C790   1.414       .  A
C790        N791   1.429       .  S
N791        O795   1.262       .  A
N791        O796   1.262       .  A
N794        O797   1.261       .  A
N794        O798   1.263       .  A
C799        C800   1.381       .  A
C799        C804   1.410       .  A
C799        H806   1.084       .  S
C800        C801   1.427   1_455  A
C801        C802   1.405       .  A
C801        N808   1.435       .  S
C802        C803   1.403   1_655  A
C802        H807   1.070       .  S
C803        C804   1.465       .  A
C804        N805   1.447       .  S
N805        O809   1.263       .  A
N805        O810   1.252       .  A
N808        O811   1.260       .  A
N808        O812   1.262       .  A
C813        C814   1.382       .  A
C813        C818   1.412       .  A
C813        H820   1.085       .  S
C814        C815   1.408   1_655  A
C815        C816   1.411       .  A
C815        N822   1.419       .  S
C816        C817   1.399   1_455  A
C816        H821   1.074       .  S
C817        C818   1.444       .  A
C818        N819   1.416       .  S
N819        O823   1.253       .  A
N819        O824   1.256       .  A
N822        O825   1.263       .  A
N822        O826   1.260       .  A
C827        C828   1.427       .  A
C827        C832   1.419       .  A
C827        H834   1.082       .  S
C828        C829   1.436       .  A
C829        C830   1.414       .  A
C829        N836   1.441       .  S
C830        C831   1.401       .  A
C830        H835   1.085       .  S
C831        C832   1.416       .  A
C832        N833   1.438       .  S
N833        O837   1.259       .  A
N833        O838   1.262       .  A
N836        O839   1.264       .  A
N836        O840   1.257       .  A
C841        C842   1.397       .  A
C841        C846   1.416       .  A
C841        H848   1.082       .  S
C842        C843   1.408   1_455  A
C843        C844   1.410       .  A
C843        N850   1.439       .  S
C844        C845   1.409   1_655  A
C844        H849   1.065       .  S
C845        C846   1.446       .  A
C846        N847   1.432       .  S
N847        O851   1.263       .  A
N847        O852   1.256       .  A
N850        O853   1.263       .  A
N850        O854   1.261       .  A
C855        C856   1.405   1_655  A
C855        C860   1.385       .  A
C855        H862   1.055       .  S
C856        C857   1.428       .  A
C857        C858   1.401       .  A
C857        N864   1.417       .  S
C858        C859   1.390   1_455  A
C858        H863   1.079       .  S
C859        C860   1.403       .  A
C860        N861   1.427       .  S
N861        O865   1.260       .  A
N861        O866   1.260       .  A
N864        O867   1.261       .  A
N864        O868   1.260       .  A
C869        C870   1.420       .  A
C869        C874   1.414       .  A
C869        H876   1.083       .  S
C870        C871   1.432       .  A
C871        C872   1.393       .  A
C871        N878   1.410       .  S
C872        C873   1.385       .  A
C872        H877   1.086       .  S
C873        C874   1.415       .  A
C874        N875   1.422       .  S
N875        O879   1.262       .  A
N875        O880   1.260       .  A
N878        O881   1.259       .  A
N878        O882   1.261       .  A
C883        C884   1.411       .  A
C883        C888   1.418       .  A
C883        H890   1.085       .  S
C884        C885   1.420       .  A
C885        C886   1.432       .  A
C885        N892   1.439       .  S
C886        C887   1.423       .  A
C886        H891   1.079       .  S
C887        C888   1.425       .  A
C888        N889   1.434       .  S
N889        O893   1.262       .  A
N889        O894   1.262       .  A
N892        O895   1.263       .  A
N892        O896   1.263       .  A
C897        C898   1.417       .  A
C897        C902   1.427       .  A
C897        H904   1.070       .  S
C898        C899   1.416       .  A
C899        C900   1.423       .  A
C899        N906   1.431       .  S
C900        C901   1.420       .  A
C900        H905   1.084       .  S
C901        C902   1.417       .  A
C902        N903   1.434       .  S
N903        O907   1.261       .  A
N903        O908   1.258       .  A
N906        O909   1.261       .  A
N906        O910   1.262       .  A
C911        C912   1.385       .  A
C911        C916   1.419       .  A
C911        H918   1.083       .  S
C912        C913   1.440   1_554  A
C913        C914   1.405       .  A
C913        N920   1.440       .  S
C914        C915   1.395   1_556  A
C914        H919   1.058       .  S
C915        C916   1.460       .  A
C916        N917   1.438       .  S
N917        O921   1.261       .  A
N917        O922   1.249       .  A
N920        O923   1.258       .  A
N920        O924   1.263       .  A
C925        C926   1.410       .  A
C925        C930   1.419       .  A
C925        H932   1.076       .  S
C926        C927   1.404   1_554  A
C927        C928   1.417       .  A
C927        N934   1.435       .  S
C928        C929   1.423       .  A
C928        H933   1.080       .  S
C929        C930   1.418   1_556  A
C930        N931   1.433       .  S
N931        O935   1.259       .  A
N931        O936   1.259       .  A
N934        O937   1.261       .  A
N934        O938   1.263   1_556  A
C939        C940   1.426       .  A
C939        C944   1.419       .  A
C939        H946   1.078       .  S
C940        C941   1.421       .  A
C941        C942   1.400       .  A
C941        N948   1.399       .  S
C942        C943   1.388       .  A
C942        H947   1.086       .  S
C943        C944   1.411       .  A
C944        N945   1.435       .  S
N945        O949   1.263       .  A
N945        O950   1.263       .  A
N948        O951   1.262       .  A
N948        O952   1.258       .  A
C953        C954   1.420       .  A
C953        C958   1.410       .  A
C953        H960   1.082       .  S
C954        C955   1.415       .  A
C955        C956   1.406       .  A
C955        N962   1.446       .  S
C956        C957   1.411       .  A
C956        H961   1.085       .  S
C957        C958   1.409       .  A
C958        N959   1.450       .  S
N959        O963   1.263       .  A
N959        O964   1.261       .  A
N962        O965   1.264       .  A
N962        O966   1.260       .  A
C967        C968   1.422       .  A
C967        C972   1.416       .  A
C967        H974   1.073       .  S
C968        C969   1.413   1_554  A
C969        C970   1.407       .  A
C969        N976   1.440       .  S
C970        C971   1.412   1_556  A
C970        H975   1.076       .  S
C971        C972   1.412       .  A
C972        N973   1.444       .  S
N973        O977   1.263       .  A
N973        O978   1.262       .  A
N976        O979   1.262       .  A
N976        O980   1.263   1_556  A
C981        C982   1.415       .  A
C981        C986   1.418       .  A
C981        H988   1.082       .  S
C982        C983   1.414   1_554  A
C983        C984   1.421       .  A
C983        N990   1.442       .  S
C984        C985   1.431       .  A
C984        H989   1.073       .  S
C985        C986   1.419   1_556  A
C986        N987   1.440       .  S
N987        O991   1.263       .  A
N987        O992   1.259       .  A
N990        O993   1.261       .  A
N990        O994   1.262       .  A
C995        C996   1.419       .  A
C995       C1000   1.410       .  A
C995       H1002   1.079       .  S
C996        C997   1.409       .  A
C997        C998   1.406       .  A
C997       N1004   1.437       .  S
C998        C999   1.412       .  A
C998       H1003   1.083       .  S
C999       C1000   1.406       .  A
C1000      N1001   1.442       .  S
N1001      O1005   1.261       .  A
N1001      O1006   1.262       .  A
N1004      O1007   1.259       .  A
N1004      O1008   1.263       .  A
