geometry optimzed in LAMMPS
_audit_creation_date              2020-11-30 
_audit_creation_method            'lammps2cif' 
_symmetry_space_group_name_H-M    'P1' 
_symmetry_Int_Tables_number       1 
_symmetry_cell_setting            triclinic 
loop_ 
_symmetry_equiv_pos_as_xyz 
  x,y,z 
_cell_length_a                    53.3889954 
_cell_length_b                    15.637920315271108 
_cell_length_c                    30.45161086085283 
_cell_angle_alpha                 89.84553296046158 
_cell_angle_beta                  91.39127431000078 
_cell_angle_gamma                 103.5119963740928 
loop_ 
_atom_site_label 
_atom_site_type_symbol 
_atom_site_fract_x 
_atom_site_fract_y 
_atom_site_fract_z 
_atom_site_charge 
N1          N  0.33520463  0.07679077  0.13311816    -0.02100
C2          C  0.31691582  0.05484467  0.10032911     0.00500
C3          C  0.30840826  0.96499033  0.09642688    -0.22400
C4          C  0.32198927  0.92867566  0.12652692    -0.22600
C5          C  0.33871456  0.99664448  0.14860436     0.00400
H6          H  0.29348266  0.92943907  0.07419137     0.14200
H7          H  0.31866756  0.85924838  0.13303466     0.14200
N8          N  0.34273985  0.41348294  0.21621703    -0.02100
C9          C  0.34217953  0.46095703  0.25343205     0.00500
C10         C  0.36050115  0.53940127  0.25203534    -0.22400
C11         C  0.36822116  0.54927015  0.20944784    -0.22600
C12         C  0.35440507  0.47620108  0.18680500     0.00400
H13         H  0.36546085  0.58943712  0.27713418     0.14200
H14         H  0.37265059  0.11329684  0.20668176     0.14200
N15         N  0.09693185  0.12446017  0.21861074    -0.02100
C16         C  0.09808015  0.08500956  0.25821449     0.00500
C17         C  0.08336399  0.00006293  0.25684889    -0.22400
C18         C  0.07671075  0.98196877  0.21340052    -0.22600
C19         C  0.08830614  0.05577627  0.18970001     0.00400
H20         H  0.08012901  0.95291657  0.28318936     0.14200
H21         H  0.06893272  0.91657512  0.20052663     0.14200
N22         N  0.11085511  0.46377022  0.13692009    -0.02100
C23         C  0.13352428  0.48680680  0.11532427     0.00500
C24         C  0.14349652  0.57622069  0.11732572    -0.22400
C25         C  0.12580893  0.11152448  0.14173699    -0.22600
C26         C  0.10614627  0.54251940  0.15135905     0.00400
H27         H  0.16092126  0.61280960  0.10231040     0.14200
H28         H  0.12885279  0.17954284  0.15120886     0.14200
In29       In  0.22240636  0.29952887  0.43356240     1.36900
C30         C  0.25881182  0.37327277  0.37761445     0.79000
O31         O  0.19281654  0.18093621  0.40757238    -0.59500
O32         O  0.19385425  0.30719426  0.38009991    -0.50400
C33         C  0.25469698  0.24309625  0.48697790     0.71600
O34         O  0.25029593  0.31860561  0.49036402    -0.45200
C35         C  0.19155822  0.34845347  0.48945819     0.76300
O36         O  0.24685341  0.29350809  0.37663643    -0.57100
O37         O  0.19591164  0.27257315  0.48976323    -0.47200
O38         O  0.25170824  0.41853186  0.40735822    -0.53500
C39         C  0.18315681  0.22615736  0.38020056     0.86500
O40         O  0.24202145  0.19515314  0.45669254    -0.55400
O41         O  0.20402788  0.40119820  0.46154871    -0.58700
N42         N  0.35351117  0.15952746  0.13474712    -0.02100
C43         C  0.37384121  0.18089411  0.10747163     0.00500
C44         C  0.38500486  0.26943300  0.10924139    -0.22400
C45         C  0.37101308  0.30574393  0.13734885    -0.22600
C46         C  0.35140220  0.23892217  0.15279549     0.00400
H47         H  0.40136068  0.30431307  0.09092980     0.14200
H48         H  0.37595761  0.37382973  0.14692009     0.14200
N49         N  0.34698273  0.32564679  0.21979876    -0.02100
C50         C  0.34734212  0.28802095  0.26009598     0.00500
C51         C  0.33212192  0.20412363  0.26011623    -0.22400
C52         C  0.32498956  0.18388301  0.21706251    -0.22600
C53         C  0.33672359  0.25576371  0.19214400     0.00400
H54         H  0.32911349  0.15917777  0.28752232     0.14200
H55         H  0.31641058  0.11825243  0.20521321     0.14200
N56         N  0.09322326  0.38020883  0.13151323    -0.02100
C57         C  0.07811804  0.35877468  0.09459044     0.00500
C58         C  0.07071342  0.26897421  0.08895757    -0.22400
C59         C  0.08174548  0.23237170  0.12258458    -0.22600
C60         C  0.09582723  0.30013040  0.14844034     0.00400
H61         H  0.05755219  0.23346421  0.06402924     0.14200
H62         H  0.07803748  0.16287045  0.12885551     0.14200
N63         N  0.09046616  0.20908099  0.21691528    -0.02100
C64         C  0.08504988  0.24514789  0.25534527     0.00500
C65         C  0.10110083  0.32703939  0.26188125    -0.22400
C66         C  0.11295436  0.35018545  0.22282001    -0.22600
C67         C  0.10416787  0.28057530  0.19415215     0.00400
H68         H  0.10238331  0.36880636  0.29043288     0.14200
H69         H  0.12346936  0.41589769  0.21468417     0.14200
In70       In  0.46890202  0.03628443  0.43221211     1.36900
C71         C  0.43547457  0.07860532  0.48683699     0.79000
O72         O  0.49174850  0.45122875  0.46022082    -0.59500
O73         O  0.99988618  0.56696505  0.48522438    -0.50400
C74         C  0.42964274  0.44590019  0.38206720     0.71600
O75         O  0.43322449  0.52792271  0.38744760    -0.45200
C76         C  0.50242923  0.11992348  0.37496225     0.76300
O77         O  0.44124587  0.00480114  0.48741214    -0.57100
O78         O  0.98960417  0.01393976  0.36722573    -0.47200
O79         O  0.44731271  0.13179843  0.45854882    -0.53500
C80         C  0.50413259  0.50858130  0.48703359     0.86500
O81         O  0.44584870  0.41066113  0.40184585    -0.55400
O82         O  0.49359146  0.16094751  0.40452373    -0.58700
C83         C  0.02084020  0.13769079  0.34001291     0.01200
C84         C  0.51990274  0.14163469  0.30007790    -0.10600
C85         C  0.03983699  0.15024865  0.26735637     0.03500
C86         C  0.06306241  0.20483219  0.28443925     0.01200
C87         C  0.06457000  0.22537488  0.32961775    -0.10600
C88         C  0.04377334  0.19244270  0.35718880     0.03400
H89         H  0.50170358  0.10151740  0.28774511     0.16300
H90         H  0.08217298  0.26600912  0.34373595     0.16300
C91         C  0.04679064  0.21042920  0.40366626     0.38000
C92         C  0.53459303  0.15289138  0.22491225     0.37900
N93         N  0.04843123  0.22227969  0.44119469    -0.42400
N94         N  0.52994109  0.13666054  0.18813546    -0.42300
C95         C  0.02902073  0.47216869  0.01397196     0.01200
C96         C  0.04699445  0.43265582  0.99457261    -0.10600
C97         C  0.06598169  0.40641310  0.02006359     0.03500
C98         C  0.06695917  0.41820617  0.06616493     0.01200
C99         C  0.05044458  0.46508061  0.08499122    -0.10600
C100        C  0.03158236  0.49251223  0.05924901     0.03400
H101        H  0.04558629  0.43025286  0.45726358     0.16300
H102        H  0.05044814  0.47253428  0.12028591     0.16300
C103        C  0.01306987  0.04316404  0.08007118     0.38000
C104        C  0.08292889  0.36105040  0.99847671     0.37900
N105        N  0.99908866  0.07981818  0.09597220    -0.42400
N106        N  0.09633446  0.32430774  0.98098073    -0.42300
C107        C  0.36830078  0.31989807  0.29337263     0.01200
C108        C  0.36247059  0.34882200  0.33456909    -0.10600
C109        C  0.38219665  0.39010971  0.36405147     0.03500
C110        C  0.40823473  0.39633345  0.35393468     0.01200
C111        C  0.41398439  0.36055553  0.31444015    -0.10600
C112        C  0.39436760  0.32366229  0.28394320     0.03400
H113        H  0.34253022  0.34221447  0.34302955     0.16300
H114        H  0.43394816  0.36462274  0.30662304     0.16300
C115        C  0.40172160  0.28895278  0.24366052     0.38000
C116        C  0.37523763  0.42738444  0.40392033     0.37900
N117        N  0.40843129  0.26132996  0.21195811    -0.42400
N118        N  0.36941115  0.45793054  0.43552335    -0.42300
C119        C  0.41536658  0.07323773  0.01439207     0.01200
C120        C  0.39821762  0.12368785  0.00028466    -0.10600
C121        C  0.38171165  0.14972935  0.02979538     0.03500
C122        C  0.38197647  0.12469227  0.07429249     0.01200
C123        C  0.39720877  0.06697766  0.08760209    -0.10600
C124        C  0.41385384  0.04084068  0.05797744     0.03400
H125        H  0.40692931  0.19463443  0.47042101     0.16300
H126        H  0.39789307  0.04896376  0.12195828     0.16300
C127        C  0.43092378  0.98818863  0.07432646     0.38000
C128        C  0.36619013  0.20913934  0.01514337     0.37900
N129        N  0.44464627  0.94617059  0.08752617    -0.42400
N130        N  0.35372768  0.25743698  0.00462216    -0.42300
C131        C  0.14413083  0.43164395  0.08471400     0.01200
C132        C  0.14327065  0.45175534  0.03981099    -0.10600
C133        C  0.15796987  0.41844896  0.00968205     0.03500
C134        C  0.17376610  0.36291795  0.02423690     0.01200
C135        C  0.17392130  0.33976127  0.06883155    -0.10000
C136        C  0.15975059  0.37529922  0.09927277     0.03400
H137        H  0.13178325  0.49667164  0.02851131     0.16300
H138        H  0.18616699  0.29740279  0.08024240     0.16300
C139        C  0.16344752  0.35907906  0.14534597     0.38000
C140        C  0.15484519  0.45008947  0.45993467     0.37900
N141        N  0.16699640  0.34588805  0.18211378    -0.42400
N142        N  0.15338867  0.46591367  0.42297143    -0.42300
C143        C  0.11873372  0.12153693  0.29182752     0.01200
C144        C  0.14145941  0.17748734  0.27662482    -0.10600
C145        C  0.16237520  0.21152435  0.30490837     0.03500
C146        C  0.16132600  0.18845860  0.34967522     0.01200
C147        C  0.13868912  0.13305466  0.36541629    -0.10600
C148        C  0.11733549  0.10026171  0.33708508     0.03400
H149        H  0.14317540  0.19408007  0.24206412     0.16300
H150        H  0.13738747  0.11772226  0.40014805     0.16300
C151        C  0.09400683  0.04906966  0.35579611     0.38000
C152        C  0.18505935  0.26836043  0.28678755     0.37900
N153        N  0.07527686  0.00850453  0.37096065    -0.42400
N154        N  0.20321885  0.31410310  0.27237438    -0.42300
C155        C  0.32015131  0.44232337  0.28459114     0.01200
C156        C  0.32264068  0.48546381  0.32560074    -0.10600
C157        C  0.30234758  0.47019675  0.35535548     0.03500
C158        C  0.27930553  0.40709316  0.34546142     0.01200
C159        C  0.27635039  0.36749731  0.30387483    -0.10600
C160        C  0.29588488  0.38652054  0.27313465     0.03400
H161        H  0.34059632  0.53081996  0.33493294     0.16300
H162        H  0.25833879  0.32167158  0.29500172     0.16300
C163        C  0.28935750  0.35105605  0.22958156     0.38000
C164        C  0.30604149  0.52119446  0.39516647     0.37900
N165        N  0.28318995  0.32227123  0.19497438    -0.42400
N166        N  0.30992487  0.56606817  0.42584065    -0.42300
C167        C  0.30570491  0.11413010  0.07170926     0.01200
C168        C  0.29128390  0.16826639  0.09063522    -0.10600
C169        C  0.27315716  0.20069709  0.06519946     0.03500
C170        C  0.26913660  0.17809459  0.02018179     0.01200
C171        C  0.28459815  0.12832713  0.00091828    -0.10600
C172        C  0.30289672  0.09742004  0.02599368     0.03400
H173        H  0.29269759  0.17957308  0.12581442     0.16300
H174        H  0.29148616  0.16648909  0.46106815     0.16300
C175        C  0.31845465  0.04722352  0.00416819     0.38000
C176        C  0.25737734  0.25048500  0.08675556     0.37900
N177        N  0.33144991  0.00866020  0.98688699    -0.42400
N178        N  0.24466391  0.29039138  0.10389499    -0.42300
N179        N  0.33512671  0.10033534  0.63117422    -0.02100
C180        C  0.31823770  0.08158326  0.59639806     0.00500
C181        C  0.30911643  0.99241903  0.59107336    -0.22400
C182        C  0.32064027  0.95314371  0.62319075    -0.22600
C183        C  0.33725423  0.01902548  0.64693453     0.00400
H184        H  0.29499343  0.95971878  0.56684209     0.14200
H185        H  0.31629895  0.88339212  0.62946273     0.14200
N186        N  0.34008994  0.42680373  0.72427484    -0.02100
C187        C  0.33904739  0.46513690  0.76402534     0.00500
C188        C  0.35361572  0.55002249  0.76460892    -0.22400
C189        C  0.36021907  0.57039077  0.72185122    -0.22600
C190        C  0.34927880  0.49664954  0.69695019     0.00400
H191        H  0.35657120  0.59488346  0.79215251     0.14200
H192        H  0.37272137  0.12992807  0.70674641     0.14200
N193        N  0.09404156  0.11885671  0.71418973    -0.02100
C194        C  0.09436870  0.07617143  0.75322260     0.00500
C195        C  0.07799828  0.99376392  0.75046727    -0.22400
C196        C  0.07149974  0.97912604  0.70681189    -0.22600
C197        C  0.08453746  0.05237150  0.68432588     0.00400
H198        H  0.07330994  0.94490076  0.77575628     0.14200
H199        H  0.06269759  0.91524674  0.69303067     0.14200
N200        N  0.10912325  0.46073762  0.63523870    -0.02100
C201        C  0.13125292  0.48445823  0.61217530     0.00500
C202        C  0.14163187  0.57350004  0.61530492    -0.22400
C203        C  0.12100968  0.10536320  0.63371058    -0.22600
C204        C  0.10517318  0.53903640  0.65177804     0.00400
H205        H  0.15887084  0.61033514  0.59984531     0.14200
H206        H  0.12409075  0.17384424  0.64222989     0.14200
In207      In  0.21804044  0.26502534  0.93701698     1.36900
C208        C  0.25617234  0.33291505  0.88370085     0.79000
O209        O  0.18630488  0.15270394  0.90955826    -0.59500
O210        O  0.19189021  0.27875670  0.88031558    -0.50400
C211        C  0.24965020  0.20704648  0.99201022     0.71600
O212        O  0.24635887  0.28431096  0.99358621    -0.45200
C213        C  0.19020051  0.32889706  0.99358959     0.76300
O214        O  0.24739487  0.25120397  0.88794885    -0.57100
O215        O  0.19133877  0.24917421  0.99344592    -0.47200
O216        O  0.24507037  0.38081305  0.90605633    -0.53500
C217        C  0.17901994  0.20017964  0.88037406     0.86500
O218        O  0.23580930  0.15765936  0.96330180    -0.55400
O219        O  0.20393541  0.37679656  0.96538735    -0.58700
N220        N  0.35292830  0.18353058  0.63618593    -0.02100
C221        C  0.37228783  0.21245842  0.60717024     0.00500
C222        C  0.38021692  0.30256344  0.60802480    -0.22400
C223        C  0.36437559  0.33216996  0.63502778    -0.22600
C224        C  0.34789023  0.26014606  0.65312231     0.00400
H225        H  0.39535576  0.34316194  0.58915663     0.14200
H226        H  0.36604617  0.40030711  0.64221909     0.14200
N227        N  0.34724906  0.34348488  0.72223608    -0.02100
C228        C  0.35244318  0.30488453  0.76027280     0.00500
C229        C  0.33687472  0.22151981  0.76302084    -0.22400
C230        C  0.32614759  0.20127171  0.72170007    -0.22600
C231        C  0.33546560  0.27374303  0.69566383     0.00400
H232        H  0.33525660  0.17753762  0.79063696     0.14200
H233        H  0.31665157  0.13587532  0.71053501     0.14200
N234        N  0.09097685  0.37846987  0.62906828    -0.02100
C235        C  0.07579215  0.35969570  0.59211717     0.00500
C236        C  0.06719210  0.27027523  0.58617038    -0.22400
C237        C  0.07753566  0.23107524  0.61975367    -0.22600
C238        C  0.09258181  0.29704428  0.64555472     0.00400
H239        H  0.05372496  0.23699486  0.56107114     0.14200
H240        H  0.07304288  0.16135064  0.62576343     0.14200
N241        N  0.08854120  0.20517388  0.71390101    -0.02100
C242        C  0.08527181  0.24258049  0.75321817     0.00500
C243        C  0.10217996  0.32281021  0.75871405    -0.22400
C244        C  0.11261510  0.34467635  0.71851755    -0.22600
C245        C  0.10202662  0.27576593  0.69025322     0.00400
H246        H  0.10486457  0.36414176  0.78761578     0.14200
H247        H  0.12351728  0.40951399  0.70982769     0.14200
In248      In  0.46997557  0.03389758  0.92729462     1.36900
C249        C  0.43532058  0.05992689  0.98368290     0.79000
O250        O  0.49881556  0.45695802  0.95727631    -0.59500
O251        O  0.00129796  0.56112173  0.98541082    -0.50400
C252        C  0.43871721  0.46049385  0.87697951     0.71600
O253        O  0.44613409  0.54338116  0.87743104    -0.45200
C254        C  0.50427926  0.11283131  0.87053237     0.76300
O255        O  0.44223083  0.98821180  0.98117148    -0.57100
O256        O  0.99434596  0.01993189  0.87364148    -0.47200
O257        O  0.44667918  0.11960338  0.95779520    -0.53500
C258        C  0.51055424  0.51230791  0.98558503     0.86500
O259        O  0.45052689  0.42046686  0.90377064    -0.55400
O260        O  0.49481021  0.15612911  0.89836317    -0.58700
C261        C  0.02421003  0.14372097  0.84415680     0.01200
C262        C  0.52204565  0.13393908  0.79566129    -0.10600
C263        C  0.03822755  0.17762413  0.76901555     0.03500
C264        C  0.06408920  0.20670844  0.78408910     0.01200
C265        C  0.06954244  0.20570027  0.82944032    -0.10600
C266        C  0.04999985  0.17243078  0.85925813     0.03400
H267        H  0.50405178  0.09263733  0.78321790     0.16300
H268        H  0.08927825  0.22803331  0.84144214     0.16300
C269        C  0.05709830  0.16156067  0.90462305     0.38000
C270        C  0.53645454  0.15102037  0.72026328     0.37900
N271        N  0.06278486  0.15078572  0.94077098    -0.42400
N272        N  0.53200654  0.13663457  0.68327402    -0.42300
C273        C  0.02780510  0.47730450  0.51207445     0.01200
C274        C  0.04636698  0.44070365  0.49253515    -0.10600
C275        C  0.06520392  0.41377601  0.51814483     0.03500
C276        C  0.06540458  0.42185291  0.56438359     0.01200
C277        C  0.04844724  0.46645761  0.58352044    -0.10600
C278        C  0.02966997  0.49427213  0.55774363     0.03400
H279        H  0.04560608  0.41933986  0.95953084     0.16300
H280        H  0.04806190  0.47139967  0.61898988     0.16300
C281        C  0.01083155  0.04239290  0.57438464     0.38000
C282        C  0.08287678  0.37175359  0.49641117     0.37900
N283        N  0.99842675  0.08515497  0.59011579    -0.42400
N284        N  0.09680351  0.33770331  0.47853266    -0.42300
C285        C  0.37520669  0.34233997  0.79000499     0.01200
C286        C  0.37582955  0.31341413  0.83386582    -0.10600
C287        C  0.39672360  0.34953571  0.86235539     0.03500
C288        C  0.41744368  0.41517120  0.84741350     0.01200
C289        C  0.41733425  0.44214225  0.80382119    -0.10600
C290        C  0.39709581  0.40482902  0.77482991     0.03400
H291        H  0.35967964  0.26499804  0.84647830     0.16300
H292        H  0.43357867  0.49149429  0.79203694     0.16300
C293        C  0.40094594  0.42882852  0.72937705     0.38000
C294        C  0.39620121  0.32332756  0.90763448     0.37900
N295        N  0.40566605  0.45050085  0.69359669    -0.42400
N296        N  0.39717466  0.30629519  0.94444043    -0.42300
C297        C  0.41618198  0.10119022  0.51651874     0.01200
C298        C  0.40346876  0.16573317  0.50278700    -0.10600
C299        C  0.38664564  0.19484021  0.53039272     0.03500
C300        C  0.38257709  0.16115964  0.57361221     0.01200
C301        C  0.39388034  0.09224177  0.58647239    -0.10600
C302        C  0.41043086  0.06154247  0.55819046     0.03400
H303        H  0.39848086  0.14554725  0.96648963     0.16300
H304        H  0.39128378  0.06667795  0.61958353     0.16300
C305        C  0.42272529  0.99404765  0.57400772     0.38000
C306        C  0.37406412  0.26123291  0.51381635     0.37900
N307        N  0.43272512  0.94005629  0.58640081    -0.42400
N308        N  0.36374262  0.31431630  0.50139346    -0.42300
C309        C  0.14141954  0.43054467  0.58034045     0.01200
C310        C  0.14125945  0.45568614  0.53600407    -0.10600
C311        C  0.15669542  0.42671759  0.50558084     0.03500
C312        C  0.17307580  0.37289300  0.51949644     0.01200
C313        C  0.17201342  0.34269104  0.56299547    -0.10000
C314        C  0.15672298  0.37225872  0.59365762     0.03400
H315        H  0.12979868  0.50125904  0.52551585     0.16300
H316        H  0.18437464  0.30020097  0.57371433     0.16300
C317        C  0.15949334  0.34914696  0.63905510     0.38000
C318        C  0.15614877  0.44074223  0.96385348     0.37900
N319        N  0.16260804  0.32971631  0.67510922    -0.42400
N320        N  0.15462989  0.45759241  0.92701153    -0.42300
C321        C  0.11498690  0.10759628  0.78813221     0.01200
C322        C  0.13749928  0.16837894  0.77538449    -0.10600
C323        C  0.15819389  0.19918705  0.80478742     0.03500
C324        C  0.15728146  0.16777467  0.84835824     0.01200
C325        C  0.13489452  0.10745080  0.86160509    -0.10600
C326        C  0.11382774  0.07751698  0.83225839     0.03400
H327        H  0.13924774  0.19161074  0.74177734     0.16300
H328        H  0.13352656  0.08552855  0.89542910     0.16300
C329        C  0.09112675  0.01926116  0.84932371     0.38000
C330        C  0.18051414  0.26134251  0.78874248     0.37900
N331        N  0.07301915  0.97272028  0.86348991    -0.42400
N332        N  0.19836123  0.31129156  0.77590810    -0.42300
C333        C  0.31778599  0.43300333  0.79507430     0.01200
C334        C  0.32332958  0.40596240  0.83741008    -0.10600
C335        C  0.30344843  0.37020407  0.86618762     0.03500
C336        C  0.27767588  0.36903513  0.85435870     0.01200
C337        C  0.27215616  0.39991310  0.81300036    -0.10600
C338        C  0.29179340  0.43023898  0.78309939     0.03400
H339        H  0.34311850  0.41126198  0.84776694     0.16300
H340        H  0.25232879  0.39867866  0.80370131     0.16300
C341        C  0.28441949  0.46030829  0.74101783     0.38000
C342        C  0.30980365  0.33210038  0.90689763     0.37900
N343        N  0.27732552  0.48382853  0.70794421    -0.42400
N344        N  0.31483433  0.29988909  0.93913386    -0.42300
C345        C  0.30814798  0.14447738  0.56882467     0.01200
C346        C  0.29155222  0.19045970  0.58796978    -0.10600
C347        C  0.27417075  0.22448410  0.56182218     0.03500
C348        C  0.27366243  0.21381220  0.51574697     0.01200
C349        C  0.29142949  0.17315497  0.49652275    -0.10600
C350        C  0.30857225  0.13859749  0.52257536     0.03400
H351        H  0.29049474  0.19267623  0.62346356     0.16300
H352        H  0.28230537  0.11318019  0.96608798     0.16300
C353        C  0.32583373  0.09447380  0.50111885     0.38000
C354        C  0.25517922  0.26106091  0.58319466     0.37900
N355        N  0.33996645  0.06055462  0.48376146    -0.42400
N356        N  0.23986590  0.29003358  0.60028584    -0.42300
N357        N  0.33412927  0.56994903  0.13206515    -0.02100
C358        C  0.31452223  0.54479663  0.10178090     0.00500
C359        C  0.30692644  0.45458282  0.09873302    -0.22400
C360        C  0.32272340  0.42147035  0.12616486    -0.22600
C361        C  0.33952821  0.49174786  0.14636468     0.00400
H362        H  0.29161138  0.41671106  0.07799020     0.14200
H363        H  0.32109022  0.35251174  0.13185596     0.14200
N364        N  0.34028764  0.90737676  0.21639380    -0.02100
C365        C  0.33831177  0.94577205  0.25604101     0.00500
C366        C  0.35447669  0.02809993  0.25883342    -0.22400
C367        C  0.36318510  0.04823619  0.21727116    -0.22600
C368        C  0.35180065  0.97765377  0.19063752     0.00400
H369        H  0.35733211  0.07229199  0.28665199     0.14200
H370        H  0.37864840  0.61060154  0.19555183     0.14200
N371        N  0.09651243  0.62216457  0.21636544    -0.02100
C372        C  0.09570806  0.57688623  0.25457362     0.00500
C373        C  0.07905440  0.49560275  0.25035473    -0.22400
C374        C  0.07355646  0.48394937  0.20621346    -0.22600
C375        C  0.08758159  0.55803585  0.18526687     0.00400
H376        H  0.07367556  0.44612018  0.27522644     0.14200
H377        H  0.06489016  0.42097360  0.19135848     0.14200
N378        N  0.11033071  0.96439296  0.13755435    -0.02100
C379        C  0.13268820  0.98877386  0.11508626     0.00500
C380        C  0.14246308  0.07820040  0.11755440    -0.22400
C381        C  0.12646653  0.61101696  0.13990752    -0.22600
C382        C  0.10582969  0.04221233  0.15362179     0.00400
H383        H  0.15973246  0.11565315  0.10242184     0.14200
H384        H  0.12925355  0.67963449  0.14807332     0.14200
In385      In  0.21790034  0.76936673  0.43502322     1.36900
C386        C  0.25624155  0.83032569  0.38038611     0.79000
O387        O  0.18762607  0.65357186  0.40934413    -0.59500
O388        O  0.19115655  0.77940793  0.37949361    -0.50400
C389        C  0.24775828  0.70841513  0.49056061     0.71600
O390        O  0.24673982  0.78819254  0.48978397    -0.45200
C391        C  0.18806497  0.83136460  0.48905054     0.76300
O392        O  0.24277574  0.75248183  0.37920332    -0.57100
O393        O  0.19130388  0.75415802  0.49149199    -0.47200
O394        O  0.24965749  0.87924147  0.40894651    -0.53500
C395        C  0.17949845  0.69926656  0.38028663     0.86500
O396        O  0.23288543  0.65892897  0.46318903    -0.55400
O397        O  0.20102081  0.87873672  0.45974558    -0.58700
N398        N  0.35135129  0.65488020  0.13202152    -0.02100
C399        C  0.37046511  0.67846725  0.10237246     0.00500
C400        C  0.37911474  0.76838821  0.10057493    -0.22400
C401        C  0.36466789  0.80291872  0.12859792    -0.22600
C402        C  0.34756840  0.73398174  0.14812356     0.00400
H403        H  0.39418531  0.80524311  0.08016725     0.14200
H404        H  0.36763395  0.87204003  0.13552552     0.14200
N405        N  0.34669468  0.82249534  0.21589939    -0.02100
C406        C  0.35087046  0.78470819  0.25486148     0.00500
C407        C  0.33524588  0.70162101  0.25779991    -0.22400
C408        C  0.32506023  0.68037312  0.21633481    -0.22600
C409        C  0.33483744  0.75181326  0.18974830     0.00400
H410        H  0.33354868  0.65799793  0.28563586     0.14200
H411        H  0.31577262  0.61443348  0.20568959     0.14200
N412        N  0.09257031  0.88115412  0.13200752    -0.02100
C413        C  0.07608241  0.86172440  0.09669262     0.00500
C414        C  0.06772613  0.77210145  0.09106655    -0.22400
C415        C  0.07948274  0.73363127  0.12317700    -0.22600
C416        C  0.09499793  0.80018029  0.14799719     0.00400
H417        H  0.05385517  0.73808671  0.06671752     0.14200
H418        H  0.07572135  0.66391704  0.12871722     0.14200
N419        N  0.09269784  0.71077187  0.21717145    -0.02100
C420        C  0.09060228  0.74863590  0.25696122     0.00500
C421        C  0.10693769  0.83069168  0.26017462    -0.22400
C422        C  0.11633727  0.85070071  0.21924199    -0.22600
C423        C  0.10552330  0.78024623  0.19208514     0.00400
H424        H  0.10986078  0.87561102  0.28761970     0.14200
H425        H  0.12654347  0.91571810  0.20952039     0.14200
In426      In  0.46733550  0.53880928  0.43264573     1.36900
C427        C  0.43314770  0.56881140  0.48913096     0.79000
O428        O  0.49384435  0.94699786  0.45668412    -0.59500
O429        O  0.99448419  0.05062263  0.48195462    -0.50400
C430        C  0.43279382  0.94592716  0.37825850     0.71600
O431        O  0.44135167  0.02808318  0.37567107    -0.45200
C432        C  0.50034828  0.62222931  0.37307411     0.76300
O433        O  0.44137328  0.49928721  0.48966682    -0.57100
O434        O  0.99685334  0.52651210  0.37413364    -0.47200
O435        O  0.44348877  0.62540687  0.46093731    -0.53500
C436        C  0.50595396  0.00242692  0.48457971     0.86500
O437        O  0.44303650  0.90852594  0.40847624    -0.55400
O438        O  0.49150322  0.66351739  0.40254238    -0.58700
C439        C  0.02745936  0.64714396  0.34374957     0.01200
C440        C  0.51943695  0.63937005  0.29849431    -0.10600
C441        C  0.07165214  0.73149804  0.33427331     0.03500
C442        C  0.06974642  0.71223911  0.28864633     0.01200
C443        C  0.04668766  0.65828107  0.27173976    -0.10600
C444        C  0.02599952  0.62392531  0.29890102     0.03400
H445        H  0.50175959  0.59649061  0.28584457     0.16300
H446        H  0.04480384  0.64224250  0.23700250     0.16300
C447        C  0.00340329  0.56528409  0.27979944     0.38000
C448        C  0.53562958  0.64780125  0.22408793     0.37900
N449        N  0.98542099  0.51771559  0.26447633    -0.42400
N450        N  0.53187111  0.62973664  0.18731318    -0.42300
C451        C  0.02797236  0.97545335  0.01475634     0.01200
C452        C  0.04630887  0.93640647  0.99610842    -0.10600
C453        C  0.06545282  0.91250814  0.02228217     0.03500
C454        C  0.06572396  0.92329291  0.06832099     0.01200
C455        C  0.04905403  0.97038845  0.08646687    -0.10600
C456        C  0.03053353  0.99811036  0.05984492     0.03400
H457        H  0.03811957  0.89894993  0.45801217     0.16300
H458        H  0.04893551  0.97875498  0.12177206     0.16300
C459        C  0.01343086  0.53274809  0.08080977     0.38000
C460        C  0.08383505  0.87214445  0.00158797     0.37900
N461        N  0.99881080  0.56451854  0.09820301    -0.42400
N462        N  0.09870293  0.84017026  0.98510130    -0.42300
C463        C  0.37228995  0.82368764  0.28668586     0.01200
C464        C  0.36933601  0.80765119  0.33203963    -0.10600
C465        C  0.38911768  0.84505306  0.36241736     0.03500
C466        C  0.41233079  0.89874567  0.34767107     0.01200
C467        C  0.41556029  0.91321048  0.30267846    -0.10600
C468        C  0.39617041  0.87519849  0.27220316     0.03400
H469        H  0.35131184  0.76821531  0.34391189     0.16300
H470        H  0.43357087  0.95377368  0.29122424     0.16300
C471        C  0.40234970  0.88704845  0.22641140     0.38000
C472        C  0.38479271  0.83322702  0.40876433     0.37900
N473        N  0.40847575  0.89787263  0.19026396    -0.42400
N474        N  0.38208051  0.82655517  0.44625851    -0.42300
C475        C  0.41767599  0.57953470  0.01606660     0.01200
C476        C  0.39952321  0.62388514  0.99940744    -0.10600
C477        C  0.38058677  0.64275457  0.02630117     0.03500
C478        C  0.38034329  0.62166682  0.07138255     0.01200
C479        C  0.39669341  0.56948438  0.08714197    -0.10600
C480        C  0.41493014  0.54649295  0.05956063     0.03400
H481        H  0.39321801  0.63639428  0.46550013     0.16300
H482        H  0.39670779  0.55276149  0.12170797     0.16300
C483        C  0.43167290  0.49438755  0.07771086     0.38000
C484        C  0.36258177  0.69015707  0.00815505     0.37900
N485        N  0.44485863  0.45186685  0.09239103    -0.42400
N486        N  0.34793609  0.72830060  0.99460332    -0.42300
C487        C  0.14388938  0.93469653  0.08476860     0.01200
C488        C  0.14371332  0.95646240  0.03997781    -0.10600
C489        C  0.15926171  0.92575692  0.01034441     0.03500
C490        C  0.17544370  0.87202690  0.02530218     0.01200
C491        C  0.17511802  0.84762892  0.06968346    -0.10000
C492        C  0.16007178  0.88032763  0.09968079     0.03400
H493        H  0.13204190  0.00058468  0.02839658     0.16300
H494        H  0.18769831  0.80660820  0.08135424     0.16300
C495        C  0.16395241  0.86439107  0.14570605     0.38000
C496        C  0.15552597  0.94857673  0.45826255     0.37900
N497        N  0.16814628  0.85099863  0.18221971    -0.42400
N498        N  0.15660387  0.97268866  0.42225593    -0.42300
C499        C  0.11650414  0.60320016  0.28885044     0.01200
C500        C  0.14024450  0.65387285  0.27462528    -0.10600
C501        C  0.16084290  0.68406455  0.30381240     0.03500
C502        C  0.15831834  0.66289347  0.34865645     0.01200
C503        C  0.13485911  0.61090978  0.36328567    -0.10600
C504        C  0.11395462  0.58064969  0.33379265     0.03400
H505        H  0.14289028  0.67039760  0.24016702     0.16300
H506        H  0.13252131  0.59691965  0.39800849     0.16300
C507        C  0.08997078  0.53103185  0.35097489     0.38000
C508        C  0.18453017  0.73569431  0.28641924     0.37900
N509        N  0.07076446  0.49130249  0.36491774    -0.42400
N510        N  0.20333173  0.77708973  0.27192887    -0.42300
C511        C  0.31763270  0.91154441  0.28827247     0.01200
C512        C  0.32299114  0.92131790  0.33378810    -0.10600
C513        C  0.30338320  0.89415710  0.36447541     0.03500
C514        C  0.27771173  0.86061597  0.34980984     0.01200
C515        C  0.27244930  0.85006974  0.30468628    -0.10600
C516        C  0.29194042  0.87503755  0.27404655     0.03400
H517        H  0.34259484  0.94833716  0.34540094     0.16300
H518        H  0.25286157  0.82289755  0.29324540     0.16300
C519        C  0.28446337  0.86663886  0.22818001     0.38000
C520        C  0.31020619  0.89335178  0.41057182     0.37900
N521        N  0.27790987  0.85955630  0.19163686    -0.42400
N522        N  0.31536683  0.88942598  0.44752378    -0.42300
C523        C  0.30257612  0.60176198  0.07297835     0.01200
C524        C  0.29003173  0.66168349  0.09184968    -0.10600
C525        C  0.27293833  0.69910257  0.06657791     0.03500
C526        C  0.26839827  0.67680435  0.02165514     0.01200
C527        C  0.28154472  0.61933278  0.00263337    -0.10600
C528        C  0.29846051  0.58201561  0.02762815     0.03400
H529        H  0.29209303  0.67430638  0.12688583     0.16300
H530        H  0.26947953  0.57584184  0.47438339     0.16300
C531        C  0.31097209  0.52184047  0.00594205     0.38000
C532        C  0.25838017  0.75292979  0.08827989     0.37900
N533        N  0.32100153  0.47351348  0.98872803    -0.42400
N534        N  0.24639359  0.79519815  0.10556117    -0.42300
N535        N  0.33009707  0.58310996  0.63680209    -0.02100
C536        C  0.30961128  0.55466972  0.60872630     0.00500
C537        C  0.29969273  0.46590491  0.61267537    -0.22400
C538        C  0.31512941  0.43570567  0.64164814    -0.22600
C539        C  0.33404780  0.50706631  0.65626831     0.00400
H540        H  0.28281515  0.42721205  0.59594074     0.14200
H541        H  0.31123928  0.36900315  0.65308475     0.14200
N542        N  0.33767091  0.92618429  0.71379594    -0.02100
C543        C  0.33657004  0.96299527  0.75406784     0.00500
C544        C  0.35406756  0.04234010  0.75806646    -0.22400
C545        C  0.36217353  0.06519265  0.71638276    -0.22600
C546        C  0.34961155  0.99732439  0.68902366     0.00400
H547        H  0.35868353  0.08217693  0.78732526     0.14200
H548        H  0.36801565  0.63609270  0.70985098     0.14200
N549        N  0.09664942  0.62199216  0.71673591    -0.02100
C550        C  0.09726763  0.58145840  0.75631402     0.00500
C551        C  0.08181853  0.49756656  0.75439481    -0.22400
C552        C  0.07538429  0.48051466  0.71084410    -0.22600
C553        C  0.08772145  0.55383937  0.68762410     0.00400
H554        H  0.07770692  0.45007953  0.78041924     0.14200
H555        H  0.06713048  0.41568824  0.69764739     0.14200
N556        N  0.10576916  0.95787874  0.63196331    -0.02100
C557        C  0.12731248  0.98139663  0.60726338     0.00500
C558        C  0.13693120  0.07106469  0.60826550    -0.22400
C559        C  0.12539386  0.60756819  0.64007957    -0.22600
C560        C  0.10157809  0.03655396  0.64779111     0.00400
H561        H  0.15365818  0.10800106  0.59146944     0.14200
H562        H  0.12866467  0.67560216  0.64973088     0.14200
In563      In  0.22033276  0.77635693  0.93839377     1.36900
C564        C  0.25761811  0.83874306  0.88226419     0.79000
O565        O  0.18886751  0.66462286  0.91107269    -0.59500
O566        O  0.19381431  0.79155365  0.88264111    -0.50400
C567        C  0.25027653  0.71179690  0.99334828     0.71600
O568        O  0.24925015  0.79165521  0.99407120    -0.45200
C569        C  0.19237324  0.83952303  0.99506425     0.76300
O570        O  0.24811793  0.75770361  0.88740645    -0.57100
O571        O  0.19303250  0.75951576  0.99380583    -0.47200
O572        O  0.24810890  0.88907697  0.90601080    -0.53500
C573        C  0.18132058  0.71247067  0.88242101     0.86500
O574        O  0.23540927  0.66454428  0.96520074    -0.55400
O575        O  0.20680116  0.88859635  0.96808227    -0.58700
N576        N  0.34757528  0.66714208  0.63349842    -0.02100
C577        C  0.36531616  0.68693838  0.60132072     0.00500
C578        C  0.37339000  0.77638625  0.59564771    -0.22400
C579        C  0.36002069  0.81464428  0.62392818    -0.22600
C580        C  0.34391404  0.74825293  0.64677116     0.00400
H581        H  0.38739727  0.81021149  0.57260327     0.14200
H582        H  0.36280458  0.88456275  0.62841410     0.14200
N583        N  0.34442382  0.84203207  0.71219384    -0.02100
C584        C  0.34941114  0.80390755  0.75062405     0.00500
C585        C  0.33233830  0.72376397  0.75546777    -0.22400
C586        C  0.32078881  0.70308517  0.71499917    -0.22600
C587        C  0.33137671  0.77151444  0.68736557     0.00400
H588        H  0.33005161  0.68137206  0.78374101     0.14200
H589        H  0.31013844  0.63826273  0.70534749     0.14200
N590        N  0.08824311  0.87360580  0.62897326    -0.02100
C591        C  0.07114618  0.85002399  0.59458595     0.00500
C592        C  0.06361090  0.75982573  0.59055483    -0.22400
C593        C  0.07668651  0.72524600  0.62224578    -0.22600
C594        C  0.09189688  0.79453548  0.64572926     0.00400
H595        H  0.04962832  0.72275614  0.56722355     0.14200
H596        H  0.07395777  0.65603027  0.62872066     0.14200
N597        N  0.09045886  0.70717259  0.71510504    -0.02100
C598        C  0.08632679  0.74536405  0.75357845     0.00500
C599        C  0.10189621  0.82843429  0.75772183    -0.22400
C600        C  0.11210752  0.84946213  0.71727923    -0.22600
C601        C  0.10275707  0.77759233  0.69010550     0.00400
H602        H  0.10383335  0.87192563  0.78572120     0.14200
H603        H  0.12177345  0.91512832  0.70751310     0.14200
In604      In  0.47470940  0.54616343  0.93175816     1.36900
C605        C  0.43904016  0.56978903  0.98731895     0.79000
O606        O  0.49296924  0.94357653  0.95550307    -0.59500
O607        O  0.99870331  0.06012655  0.98694373    -0.50400
C608        C  0.43454362  0.95513984  0.86993581     0.71600
O609        O  0.44186071  0.03788089  0.87273502    -0.45200
C610        C  0.50916872  0.62951454  0.87472004     0.76300
O611        O  0.44743050  0.50074712  0.98660537    -0.57100
O612        O  0.99758648  0.51462204  0.87667815    -0.47200
O613        O  0.44987530  0.62919616  0.96078643    -0.53500
C614        C  0.50607804  0.00121185  0.98150843     0.86500
O615        O  0.44593405  0.91217464  0.89593582    -0.55400
O616        O  0.50023293  0.67102207  0.90408233    -0.58700
C617        C  0.02639109  0.63711520  0.84454777     0.01200
C618        C  0.55283344  0.72424711  0.86069538    -0.10600
C619        C  0.04189666  0.65135753  0.76984471     0.03500
C620        C  0.06569585  0.70568988  0.78478062     0.01200
C621        C  0.06940354  0.72444750  0.82998628    -0.10600
C622        C  0.05001295  0.68997459  0.85976456     0.03400
H623        H  0.55490539  0.73772841  0.89569381     0.16300
H624        H  0.08765507  0.76413646  0.84224261     0.16300
C625        C  0.05512803  0.70303148  0.90623109     0.38000
C626        C  0.59791277  0.80113494  0.85387453     0.37900
N627        N  0.05829039  0.70961887  0.94386523    -0.42400
N628        N  0.61721163  0.83669681  0.87058597    -0.42300
C629        C  0.02294817  0.96279686  0.51033217     0.01200
C630        C  0.03989974  0.91668963  0.49256327    -0.10600
C631        C  0.05869731  0.89109540  0.51892422     0.03500
C632        C  0.06016317  0.90801016  0.56463503     0.01200
C633        C  0.04477601  0.96093538  0.58180772    -0.10600
C634        C  0.02658880  0.98996274  0.55484681     0.03400
H635        H  0.04532286  0.92270969  0.96111402     0.16300
H636        H  0.04551077  0.97401632  0.61679214     0.16300
C637        C  0.01086659  0.53098349  0.57955448     0.38000
C638        C  0.07546146  0.84313794  0.49866046     0.37900
N639        N  0.99572687  0.55982298  0.59722211    -0.42400
N640        N  0.08890423  0.80479704  0.48241836    -0.42300
C641        C  0.37193736  0.84098491  0.78072546     0.01200
C642        C  0.37138945  0.81517404  0.82511070    -0.10600
C643        C  0.39194702  0.85039415  0.85419121     0.03500
C644        C  0.41351323  0.91252846  0.83938275     0.01200
C645        C  0.41455815  0.93704178  0.79521807    -0.10600
C646        C  0.39453592  0.89987465  0.76559917     0.03400
H647        H  0.35459692  0.76970284  0.83766191     0.16300
H648        H  0.43146988  0.98361224  0.78358146     0.16300
C649        C  0.39893252  0.91954832  0.71973160     0.38000
C650        C  0.39021138  0.82624347  0.89983992     0.37900
N651        N  0.40338072  0.93638526  0.68330397    -0.42400
N652        N  0.38989862  0.80968397  0.93683637    -0.42300
C653        C  0.41229984  0.58176297  0.51808068     0.01200
C654        C  0.39313171  0.62027826  0.50017684    -0.10600
C655        C  0.37403499  0.63932952  0.52661179     0.03500
C656        C  0.37496838  0.62623161  0.57243565     0.01200
C657        C  0.39261364  0.58057490  0.58985145    -0.10600
C658        C  0.41085437  0.55631299  0.56280039     0.03400
H659        H  0.40046725  0.64548919  0.96549562     0.16300
H660        H  0.39352321  0.57022014  0.62502102     0.16300
C661        C  0.42881076  0.51047317  0.58236840     0.38000
C662        C  0.35455322  0.67853779  0.50685199     0.37900
N663        N  0.44282402  0.47219894  0.59813211    -0.42400
N664        N  0.33881580  0.71019070  0.49166126    -0.42300
C665        C  0.13810977  0.92549925  0.57704032     0.01200
C666        C  0.13843893  0.94761388  0.53220111    -0.10600
C667        C  0.15468339  0.91851620  0.50317456     0.03500
C668        C  0.17021675  0.86253779  0.51830120     0.01200
C669        C  0.16883357  0.83602473  0.56245039    -0.10000
C670        C  0.15385629  0.86981720  0.59218218     0.03400
H671        H  0.12717088  0.99282040  0.52040310     0.16300
H672        H  0.18102365  0.79396497  0.57448553     0.16300
C673        C  0.15802170  0.85569723  0.63830672     0.38000
C674        C  0.15774000  0.94765267  0.96444490     0.37900
N675        N  0.16258756  0.84420347  0.67488812    -0.42400
N676        N  0.15652719  0.96324458  0.92741339    -0.42300
C677        C  0.11745930  0.61654404  0.79117849     0.01200
C678        C  0.13993654  0.67642902  0.77771874    -0.10600
C679        C  0.16066352  0.70828605  0.80679538     0.03500
C680        C  0.15963090  0.67951417  0.85077953     0.01200
C681        C  0.13721647  0.62062648  0.86483445    -0.10600
C682        C  0.11612879  0.58959609  0.83579253     0.03400
H683        H  0.14172100  0.69740481  0.74374069     0.16300
H684        H  0.13593314  0.60037823  0.89895000     0.16300
C685        C  0.09333617  0.53311786  0.85354399     0.38000
C686        C  0.18321548  0.76761946  0.78978894     0.37900
N687        N  0.07523370  0.48796075  0.86846488    -0.42400
N688        N  0.20114522  0.81505060  0.77565844    -0.42300
C689        C  0.31629882  0.92872299  0.78673939     0.01200
C690        C  0.32324631  0.91753141  0.83082189    -0.10600
C691        C  0.30441197  0.88538308  0.86204652     0.03500
C692        C  0.27808028  0.87124891  0.85028855     0.01200
C693        C  0.27106909  0.88484941  0.80667728    -0.10600
C694        C  0.28982842  0.91236562  0.77485653     0.03400
H695        H  0.34339944  0.93259221  0.84075142     0.16300
H696        H  0.25085870  0.87390573  0.79745122     0.16300
C697        C  0.28133958  0.92872215  0.73091130     0.38000
C698        C  0.31239787  0.86302901  0.90529900     0.37900
N699        N  0.27431190  0.94242949  0.69591955    -0.42400
N700        N  0.31855881  0.84262839  0.93969740    -0.42300
C701        C  0.29868757  0.60609439  0.57591697     0.01200
C702        C  0.28939240  0.67795258  0.58971524    -0.10600
C703        C  0.27304932  0.71354906  0.56224875     0.03500
C704        C  0.26554341  0.67588698  0.52040247     0.01200
C705        C  0.27521601  0.60508753  0.50638868    -0.10600
C706        C  0.29189915  0.57076026  0.53335559     0.03400
H707        H  0.29310751  0.70177387  0.62310834     0.16300
H708        H  0.27841657  0.60285149  0.96802114     0.16300
C709        C  0.30113244  0.49693411  0.51724407     0.38000
C710        C  0.26220971  0.78240394  0.57963822     0.37900
N711        N  0.30851314  0.43755191  0.50484249    -0.42400
N712        N  0.25330984  0.83686223  0.59384617    -0.42300
N713        N  0.82917508  0.06159591  0.13011797    -0.02100
C714        C  0.80763529  0.03862496  0.10371974     0.00500
C715        C  0.79800183  0.94893444  0.10373845    -0.22400
C716        C  0.81460183  0.91367415  0.12830412    -0.22600
C717        C  0.83371837  0.98239238  0.14455547     0.00400
H718        H  0.78111041  0.91269755  0.08591116     0.14200
H719        H  0.81220564  0.84452400  0.13466215     0.14200
N720        N  0.83807165  0.40139551  0.20947402    -0.02100
C721        C  0.83465797  0.44029825  0.24828083     0.00500
C722        C  0.85096959  0.52236593  0.25188983    -0.22400
C723        C  0.86078029  0.54228737  0.21105018    -0.22600
C724        C  0.85002772  0.47171889  0.18410179     0.00400
H725        H  0.85367893  0.56606713  0.27986664     0.14200
H726        H  0.87510965  0.09988495  0.18989828     0.14200
N727        N  0.59378667  0.13137626  0.21832233    -0.02100
C728        C  0.59279204  0.08804850  0.25722605     0.00500
C729        C  0.57643583  0.00593814  0.25342646    -0.22400
C730        C  0.57123597  0.99205364  0.20926959    -0.22600
C731        C  0.58485497  0.06589449  0.18773677     0.00400
H732        H  0.57113569  0.95705438  0.27864783     0.14200
H733        H  0.56272234  0.92853121  0.19484635     0.14200
N734        N  0.61072630  0.47584849  0.14014354    -0.02100
C735        C  0.63233201  0.50012711  0.11546356     0.00500
C736        C  0.64220348  0.58964601  0.11768044    -0.22400
C737        C  0.62202753  0.12052939  0.13844279    -0.22600
C738        C  0.60673191  0.55431102  0.15682229     0.00400
H739        H  0.65894682  0.62703093  0.10108789     0.14200
H740        H  0.62525738  0.18867588  0.14753771     0.14200
In741      In  0.71748871  0.27093351  0.43564370     1.36900
C742        C  0.75359076  0.32573236  0.37534279     0.79000
O743        O  0.68577498  0.15792635  0.41033298    -0.59500
O744        O  0.68822892  0.28729674  0.38552176    -0.50400
C745        C  0.74789091  0.20604019  0.49013175     0.71600
O746        O  0.74777163  0.28660856  0.48895343    -0.45200
C747        C  0.69036317  0.34199741  0.49138744     0.76300
O748        O  0.73882931  0.24993440  0.37504938    -0.57100
O749        O  0.69198879  0.26287974  0.49370168    -0.47200
O750        O  0.74934354  0.37544850  0.40573289    -0.53500
C751        C  0.67662654  0.20711133  0.38436581     0.86500
O752        O  0.73199502  0.15781915  0.46366615    -0.55400
O753        O  0.70365890  0.38636794  0.46152320    -0.58700
N754        N  0.84725170  0.14448507  0.12776743    -0.02100
C755        C  0.86504943  0.16460215  0.09572173     0.00500
C756        C  0.87442957  0.25414843  0.09270682    -0.22400
C757        C  0.86203604  0.29182713  0.12301359    -0.22600
C758        C  0.84514580  0.22505938  0.14444438     0.00400
H759        H  0.88910925  0.28851122  0.07088216     0.14200
H760        H  0.86619305  0.36124316  0.13002733     0.14200
N761        N  0.84588213  0.31903395  0.21122144    -0.02100
C762        C  0.85137300  0.28668730  0.25113372     0.00500
C763        C  0.83706587  0.20208778  0.25630787    -0.22400
C764        C  0.82602659  0.17553938  0.21595622    -0.22600
C765        C  0.83408889  0.24490739  0.18734602     0.00400
H766        H  0.83654002  0.16143345  0.28511215     0.14200
H767        H  0.81702782  0.10819047  0.20733524     0.14200
N768        N  0.59248947  0.39343918  0.13464358    -0.02100
C769        C  0.57624027  0.37494943  0.09901924     0.00500
C770        C  0.56707579  0.28576194  0.09331929    -0.22400
C771        C  0.57836072  0.24610554  0.12533567    -0.22600
C772        C  0.59424849  0.31156920  0.15031597     0.00400
H773        H  0.55313701  0.25296779  0.06876970     0.14200
H774        H  0.57395124  0.17628061  0.13092836     0.14200
N775        N  0.58955013  0.21944010  0.21782052    -0.02100
C776        C  0.58585578  0.25745871  0.25673121     0.00500
C777        C  0.60329150  0.33680565  0.26253373    -0.22400
C778        C  0.61452744  0.35733008  0.22286671    -0.22600
C779        C  0.60379481  0.28891280  0.19449746     0.00400
H780        H  0.60603724  0.37874328  0.29115054     0.14200
H781        H  0.62583962  0.42169465  0.21429967     0.14200
In782      In  0.96536304  0.01161663  0.42656878     1.36900
C783        C  0.93145170  0.04747164  0.48190245     0.79000
O784        O  0.99427572  0.43952415  0.45614400    -0.59500
O785        O  0.49694517  0.57997155  0.48717404    -0.50400
C786        C  0.93390067  0.45141238  0.37432050     0.71600
O787        O  0.94350462  0.53327121  0.37361205    -0.45200
C788        C  0.99945667  0.09539044  0.36898865     0.76300
O789        O  0.93929878  0.97727154  0.48367262    -0.57100
O790        O  0.49316667  0.03805998  0.37381574    -0.47200
O791        O  0.94184716  0.10147730  0.45270534    -0.53500
C792        C  0.00658699  0.49480611  0.48401513     0.86500
O793        O  0.94388599  0.40935171  0.40290314    -0.55400
O794        O  0.99051331  0.13597511  0.39857213    -0.58700
C795        C  0.52295086  0.16207706  0.34488212     0.01200
C796        C  0.01930147  0.11636376  0.29520870    -0.10600
C797        C  0.53992417  0.17228259  0.27097528     0.03500
C798        C  0.56407267  0.22253048  0.28686660     0.01200
C799        C  0.56694270  0.24327078  0.33201399    -0.10600
C800        C  0.54662996  0.21357979  0.36084402     0.03400
H801        H  0.00178520  0.07379844  0.28176320     0.16300
H802        H  0.58525478  0.28076156  0.34514387     0.16300
C803        C  0.55089510  0.23031673  0.40727500     0.38000
C804        C  0.03588975  0.13065586  0.22108899     0.37900
N805        N  0.55348032  0.24087747  0.44482362    -0.42400
N806        N  0.03252874  0.11473755  0.18403408    -0.42300
C807        C  0.53130554  0.49489418  0.01468151     0.01200
C808        C  0.54940564  0.45370604  0.99686331    -0.10600
C809        C  0.56741871  0.42593337  0.02400830     0.03500
C810        C  0.56713260  0.43753892  0.06995493     0.01200
C811        C  0.55066955  0.48602148  0.08735301    -0.10600
C812        C  0.53276786  0.51489421  0.06004830     0.03400
H813        H  0.54379989  0.44833550  0.45961439     0.16300
H814        H  0.54991372  0.49333741  0.12266835     0.16300
C815        C  0.51493754  0.06322221  0.07390003     0.38000
C816        C  0.58457120  0.37844534  0.00459739     0.37900
N817        N  0.50234812  0.10588901  0.08916952    -0.42400
N818        N  0.59828860  0.33972417  0.98950803    -0.42300
C819        C  0.87216070  0.33280917  0.28294866     0.01200
C820        C  0.86998720  0.31423594  0.32828222    -0.10600
C821        C  0.89000163  0.35121903  0.35838660     0.03500
C822        C  0.91253767  0.40918092  0.34373097     0.01200
C823        C  0.91458067  0.42939196  0.29900014    -0.10600
C824        C  0.89516401  0.39025759  0.26857679     0.03400
H825        H  0.85264513  0.27083896  0.34035223     0.16300
H826        H  0.93196478  0.47358206  0.28750091     0.16300
C827        C  0.90065744  0.40572729  0.22273274     0.38000
C828        C  0.88691230  0.33189532  0.40450269     0.37900
N829        N  0.90590212  0.41917437  0.18632414    -0.42400
N830        N  0.88533273  0.31876279  0.44182249    -0.42300
C831        C  0.91275674  0.05784191  0.01426952     0.01200
C832        C  0.89472038  0.10065551  0.99570181    -0.10600
C833        C  0.87533908  0.12086394  0.02104904     0.03500
C834        C  0.87477147  0.10410354  0.06659686     0.01200
C835        C  0.89121648  0.05406125  0.08441843    -0.10600
C836        C  0.90982288  0.02922386  0.05838272     0.03400
H837        H  0.89260617  0.12203043  0.45914736     0.16300
H838        H  0.89120124  0.04133008  0.11939212     0.16300
C839        C  0.92713904  0.98171419  0.07877410     0.38000
C840        C  0.85727010  0.16540153  0.00066693     0.37900
N841        N  0.94091195  0.94314960  0.09510458    -0.42400
N842        N  0.84261969  0.20136408  0.98511744    -0.42300
C843        C  0.64268760  0.44580222  0.08353132     0.01200
C844        C  0.64319782  0.47157278  0.03916145    -0.10600
C845        C  0.65796764  0.43930636  0.00853024     0.03500
C846        C  0.67257948  0.37908853  0.02181600     0.01200
C847        C  0.67145309  0.35080836  0.06574986    -0.10000
C848        C  0.65737779  0.38548171  0.09680176     0.03400
H849        H  0.63265096  0.51985109  0.02868733     0.16300
H850        H  0.68289420  0.30534741  0.07646744     0.16300
C851        C  0.66110004  0.36603807  0.14245507     0.38000
C852        C  0.65940425  0.46463484  0.46064317     0.37900
N853        N  0.66512208  0.35026754  0.17872719    -0.42400
N854        N  0.65922445  0.48467116  0.42404908    -0.42300
C855        C  0.61303488  0.11747766  0.29246883     0.01200
C856        C  0.63641698  0.17246059  0.27928622    -0.10600
C857        C  0.65691337  0.20190044  0.30883705     0.03500
C858        C  0.65489222  0.17462266  0.35295933     0.01200
C859        C  0.63170318  0.11942139  0.36677413    -0.10600
C860        C  0.61066449  0.09155724  0.33710196     0.03400
H861        H  0.63899992  0.19234516  0.24524082     0.16300
H862        H  0.62976699  0.10022583  0.40099322     0.16300
C863        C  0.58678702  0.04019753  0.35387116     0.38000
C864        C  0.68019420  0.25837907  0.29245082     0.37900
N865        N  0.56765117  0.99932404  0.36755396    -0.42400
N866        N  0.69876325  0.30387088  0.27925364    -0.42300
C867        C  0.81426601  0.40327008  0.28077534     0.01200
C868        C  0.81932499  0.42023017  0.32588331    -0.10600
C869        C  0.80000506  0.39306821  0.35690907     0.03500
C870        C  0.77461452  0.35260920  0.34319384     0.01200
C871        C  0.76967773  0.33266371  0.29845355    -0.10600
C872        C  0.78917159  0.35680496  0.26741584     0.03400
H873        H  0.83862438  0.45260966  0.33711531     0.16300
H874        H  0.75046639  0.29850771  0.28763776     0.16300
C875        C  0.78251515  0.33493480  0.22200861     0.38000
C876        C  0.80713692  0.39733203  0.40288760     0.37900
N877        N  0.77698363  0.31623024  0.18575950    -0.42400
N878        N  0.81239256  0.39604754  0.43988812    -0.42300
C879        C  0.79655031  0.09532918  0.07339594     0.01200
C880        C  0.78609945  0.16261284  0.09024111    -0.10600
C881        C  0.76945177  0.20053573  0.06412096     0.03500
C882        C  0.76305919  0.17065944  0.02057102     0.01200
C883        C  0.77369023  0.10432864  0.00386732    -0.10600
C884        C  0.79063860  0.06791745  0.02930574     0.03400
H885        H  0.78944865  0.18114671  0.12452334     0.16300
H886        H  0.77080463  0.07766925  0.47071915     0.16300
C887        C  0.80106477  0.99973007  0.00987465     0.38000
C888        C  0.75702850  0.26309469  0.08386771     0.37900
N889        N  0.80941950  0.94489432  0.99465901    -0.42400
N890        N  0.74666110  0.31259779  0.09925221    -0.42300
N891        N  0.83173967  0.07073423  0.63258662    -0.02100
C892        C  0.81118230  0.04420979  0.60422025     0.00500
C893        C  0.80244838  0.95431759  0.60479894    -0.22400
C894        C  0.81858685  0.92216934  0.63179449    -0.22600
C895        C  0.83663564  0.99295572  0.64888302     0.00400
H896        H  0.78626568  0.91598384  0.58619400     0.14200
H897        H  0.81640243  0.85363743  0.63929303     0.14200
N898        N  0.84057195  0.41087197  0.71399118    -0.02100
C899        C  0.83837264  0.44714432  0.75414384     0.00500
C900        C  0.85473393  0.52894563  0.75812121    -0.22400
C901        C  0.86351039  0.55166128  0.71678012    -0.22600
C902        C  0.85223656  0.48265452  0.68915739     0.00400
H903        H  0.85777351  0.57106978  0.78673549     0.14200
H904        H  0.87530069  0.11468486  0.69773055     0.14200
N905        N  0.59625034  0.14070553  0.71289859    -0.02100
C906        C  0.59573492  0.09548326  0.75129888     0.00500
C907        C  0.57992841  0.01252583  0.74670033    -0.22400
C908        C  0.57446245  0.00086899  0.70265977    -0.22600
C909        C  0.58775736  0.07620908  0.68188996     0.00400
H910        H  0.57530849  0.96146779  0.77100251     0.14200
H911        H  0.56626080  0.93764171  0.68773336     0.14200
N912        N  0.61106215  0.48504432  0.63439223    -0.02100
C913        C  0.63307083  0.50698001  0.61062928     0.00500
C914        C  0.64329931  0.59633498  0.61199413    -0.22400
C915        C  0.62586444  0.13431159  0.63569700    -0.22600
C916        C  0.60733423  0.56464839  0.65000051     0.00400
H917        H  0.66042857  0.63207341  0.59583746     0.14200
H918        H  0.62810949  0.20238716  0.64427498     0.14200
In919      In  0.71759474  0.27791648  0.93552306     1.36900
C920        C  0.75600996  0.33457433  0.87919836     0.79000
O921        O  0.68727932  0.16435766  0.90725449    -0.59500
O922        O  0.68954450  0.29401706  0.88288793    -0.50400
C923        C  0.74589731  0.20799407  0.99120128     0.71600
O924        O  0.74609685  0.28881224  0.99121818    -0.45200
C925        C  0.68911931  0.34484756  0.99090384     0.76300
O926        O  0.74002683  0.26149490  0.87572796    -0.57100
O927        O  0.69100927  0.26598757  0.99216005    -0.47200
O928        O  0.75193837  0.38163053  0.91088956    -0.53500
C929        C  0.67849724  0.21328149  0.88062797     0.86500
O930        O  0.73067482  0.16216989  0.96300920    -0.55400
O931        O  0.70240551  0.39113352  0.96155501    -0.58700
N932        N  0.84926910  0.15477876  0.62970506    -0.02100
C933        C  0.86629748  0.17597272  0.59653777     0.00500
C934        C  0.87485691  0.26565292  0.59256076    -0.22400
C935        C  0.86260557  0.30263966  0.62329483    -0.22600
C936        C  0.84651661  0.23524528  0.64564657     0.00400
H937        H  0.88877029  0.30055167  0.56962304     0.14200
H938        H  0.86620844  0.37219267  0.62974337     0.14200
N939        N  0.84755055  0.32696152  0.71281707    -0.02100
C940        C  0.85247703  0.28960122  0.75159179     0.00500
C941        C  0.83637733  0.20755049  0.75589253    -0.22400
C942        C  0.82517115  0.18573163  0.71524947    -0.22600
C943        C  0.83487146  0.25571982  0.68781571     0.00400
H944        H  0.83466225  0.16502028  0.78415600     0.14200
H945        H  0.81505907  0.12004689  0.70555630     0.14200
N946        N  0.59268514  0.40272241  0.62948178    -0.02100
C947        C  0.57684251  0.38338272  0.59317046     0.00500
C948        C  0.56925333  0.29392061  0.58636241    -0.22400
C949        C  0.58063112  0.25517394  0.61877310    -0.22600
C950        C  0.59518003  0.32130234  0.64502365     0.00400
H951        H  0.55578800  0.26004771  0.56140562     0.14200
H952        H  0.57700400  0.18527294  0.62387961     0.14200
N953        N  0.59090938  0.22721140  0.71298011    -0.02100
C954        C  0.58665133  0.26236713  0.75225759     0.00500
C955        C  0.60284423  0.34388944  0.75852596    -0.22400
C956        C  0.61378034  0.36785851  0.71887572    -0.22600
C957        C  0.60427390  0.29917014  0.68996440     0.00400
H958        H  0.60494025  0.38445373  0.78761289     0.14200
H959        H  0.62427478  0.43362688  0.71081126     0.14200
In960      In  0.96972635  0.01891298  0.93201766     1.36900
C961        C  0.93433622  0.04570958  0.98680801     0.79000
O962        O  0.99441029  0.42984848  0.96047429    -0.59500
O963        O  0.50335754  0.58365709  0.98693075    -0.50400
C964        C  0.93614226  0.43998719  0.87422265     0.71600
O965        O  0.94501472  0.52222644  0.87454587    -0.45200
C966        C  0.00353568  0.10185157  0.87422943     0.76300
O967        O  0.94220224  0.97541712  0.98678162    -0.57100
O968        O  0.49543379  0.03063818  0.87103950    -0.47200
O969        O  0.94576637  0.10436384  0.96047652    -0.53500
C970        C  0.00748897  0.48799070  0.98622453     0.86500
O971        O  0.94597037  0.39757903  0.90286520    -0.55400
O972        O  0.99442247  0.14342766  0.90322634    -0.58700
C973        C  0.52500172  0.15361607  0.84056147     0.01200
C974        C  0.01861354  0.14633806  0.79901041    -0.10600
C975        C  0.54175246  0.16850059  0.76651177     0.03500
C976        C  0.56548479  0.22167415  0.78250864     0.01200
C977        C  0.56848040  0.23956109  0.82788922    -0.10600
C978        C  0.54847147  0.20606103  0.85671917     0.03400
H979        H  0.99885823  0.12349668  0.78714695     0.16300
H980        H  0.58658190  0.27857318  0.84106796     0.16300
C981        C  0.55268758  0.22108885  0.90325759     0.38000
C982        C  0.03111248  0.18314091  0.72321991     0.37900
N983        N  0.55513378  0.23021159  0.94089205    -0.42400
N984        N  0.02531281  0.18817800  0.68660612    -0.42300
C985        C  0.52599409  0.49393881  0.51478828     0.01200
C986        C  0.54481904  0.45919457  0.49486077    -0.10600
C987        C  0.56463395  0.43651512  0.51987894     0.03500
C988        C  0.56522049  0.44410353  0.56615639     0.01200
C989        C  0.54773907  0.48603741  0.58576581    -0.10600
C990        C  0.52847621  0.51247432  0.56034874     0.03400
H991        H  0.54883518  0.44019666  0.96187079     0.16300
H992        H  0.54776456  0.49172057  0.62123542     0.16300
C993        C  0.51036394  0.04364331  0.57904996     0.38000
C994        C  0.58347154  0.40123191  0.49740256     0.37900
N995        N  0.49498527  0.07299210  0.59569429    -0.42400
N996        N  0.59843276  0.37318797  0.47879820    -0.42300
C997        C  0.87418800  0.32888473  0.78290779     0.01200
C998        C  0.87195266  0.30909871  0.82802193    -0.10600
C999        C  0.89214576  0.34367400  0.85802277     0.03500
C1000       C  0.91521137  0.39799016  0.84321610     0.01200
C1001       C  0.91765571  0.41774892  0.79848313    -0.10600
C1002       C  0.89768944  0.38291165  0.76826051     0.03400
H1003       H  0.85416348  0.26861308  0.84015880     0.16300
H1004       H  0.93544061  0.45974068  0.78702837     0.16300
C1005       C  0.90268967  0.40100148  0.72239813     0.38000
C1006       C  0.88837834  0.32852323  0.90436085     0.37900
N1007       N  0.90739902  0.41661079  0.68594142    -0.42400
N1008       N  0.88619106  0.31950836  0.94187315    -0.42300
C1009       C  0.91128254  0.06445914  0.51121600     0.01200
C1010       C  0.89269363  0.10629493  0.49386087    -0.10600
C1011       C  0.87456755  0.12985064  0.52099676     0.03500
C1012       C  0.87562685  0.11590817  0.56675501     0.01200
C1013       C  0.89270459  0.06748968  0.58363075    -0.10600
C1014       C  0.91028375  0.04072417  0.55614710     0.03400
H1015       H  0.89600856  0.11963954  0.96138682     0.16300
H1016       H  0.89389015  0.05732603  0.61878591     0.16300
C1017       C  0.92859245  0.99616903  0.57564540     0.38000
C1018       C  0.85592154  0.17366236  0.50193808     0.37900
N1019       N  0.94320835  0.96005519  0.59121088    -0.42400
N1020       N  0.84086789  0.20908076  0.48734933    -0.42300
C1021       C  0.64361716  0.45028604  0.58029268     0.01200
C1022       C  0.64462511  0.47342703  0.53559755    -0.10600
C1023       C  0.65951399  0.43872959  0.50619312     0.03500
C1024       C  0.67380271  0.37867032  0.52115495     0.01200
C1025       C  0.67222875  0.35306417  0.56547731    -0.10000
C1026       C  0.65801832  0.39027660  0.59528204     0.03400
H1027       H  0.63441744  0.52177690  0.52388951     0.16300
H1028       H  0.68343288  0.30782532  0.57744244     0.16300
C1029       C  0.66131014  0.37362582  0.64138138     0.38000
C1030       C  0.65741400  0.46749804  0.96343647     0.37900
N1031       N  0.66495254  0.35974332  0.67803701    -0.42400
N1032       N  0.65703476  0.48893414  0.92708924    -0.42300
C1033       C  0.61596898  0.12373130  0.78664954     0.01200
C1034       C  0.63917418  0.18087959  0.77426579    -0.10600
C1035       C  0.65958882  0.20918093  0.80424002     0.03500
C1036       C  0.65743115  0.17989690  0.84805858     0.01200
C1037       C  0.63452724  0.12178637  0.86081879    -0.10600
C1038       C  0.61379350  0.09369985  0.83069426     0.03400
H1039       H  0.64167300  0.20316887  0.74055787     0.16300
H1040       H  0.63249140  0.10065485  0.89472974     0.16300
C1041       C  0.59044294  0.03716304  0.84658185     0.38000
C1042       C  0.68290381  0.26658157  0.78862295     0.37900
N1043       N  0.57181424  0.99160706  0.85958705    -0.42400
N1044       N  0.70150302  0.31261377  0.77587138    -0.42300
C1045       C  0.81767379  0.41092892  0.78627651     0.01200
C1046       C  0.82321259  0.41603479  0.83183018    -0.10600
C1047       C  0.80358278  0.38836166  0.86250287     0.03500
C1048       C  0.77760652  0.36150311  0.84812097     0.01200
C1049       C  0.77219319  0.35396866  0.80284522    -0.10600
C1050       C  0.79180832  0.37729445  0.77210784     0.03400
H1051       H  0.84298872  0.43923133  0.84344792     0.16300
H1052       H  0.75243903  0.33009611  0.79135320     0.16300
C1053       C  0.78445226  0.36933011  0.72617837     0.38000
C1054       C  0.81061998  0.37683075  0.90776508     0.37900
N1055       N  0.77817774  0.36220573  0.68950204    -0.42400
N1056       N  0.81588804  0.36289234  0.94372832    -0.42300
C1057       C  0.79965762  0.09843384  0.57295016     0.01200
C1058       C  0.78971995  0.16782538  0.58861240    -0.10600
C1059       C  0.77302327  0.20471698  0.56209587     0.03500
C1060       C  0.76583802  0.17135840  0.51929931     0.01200
C1061       C  0.77618857  0.10348325  0.50348177    -0.10600
C1062       C  0.79324512  0.06810832  0.52933495     0.03400
H1063       H  0.79346706  0.18904445  0.62246111     0.16300
H1064       H  0.76849395  0.08031350  0.97077666     0.16300
C1065       C  0.80358481  0.99907207  0.51054732     0.38000
C1066       C  0.76149802  0.27050440  0.58094942     0.37900
N1067       N  0.81189557  0.94363024  0.49585737    -0.42400
N1068       N  0.75189945  0.32259142  0.59581659    -0.42300
N1069       N  0.83357510  0.57187647  0.12743066    -0.02100
C1070       C  0.81467853  0.55136061  0.09592037     0.00500
C1071       C  0.80664967  0.46189609  0.09009566    -0.22400
C1072       C  0.82079471  0.42429438  0.11896374    -0.22600
C1073       C  0.83753457  0.49156455  0.14164187     0.00400
H1074       H  0.79163227  0.42775570  0.06767930     0.14200
H1075       H  0.81774756  0.35457076  0.12466034     0.14200
N1076       N  0.83957342  0.90353337  0.21286297    -0.02100
C1077       C  0.84041369  0.95086192  0.25047718     0.00500
C1078       C  0.85883532  0.02889871  0.24767043    -0.22400
C1079       C  0.86507857  0.03864480  0.20437644    -0.22600
C1080       C  0.85018771  0.96619913  0.18273038     0.00400
H1081       H  0.86476830  0.07906047  0.27246176     0.14200
H1082       H  0.87059259  0.60708936  0.20074737     0.14200
N1083       N  0.59813888  0.64077526  0.22131743    -0.02100
C1084       C  0.59954276  0.60391126  0.26165206     0.00500
C1085       C  0.58502704  0.51864658  0.26141088    -0.22400
C1086       C  0.57830846  0.49749985  0.21824521    -0.22600
C1087       C  0.58963198  0.56981271  0.19344920     0.00400
H1088       H  0.58183623  0.47342928  0.28851721     0.14200
H1089       H  0.57056281  0.43135305  0.20630794     0.14200
N1090       N  0.60661916  0.97336489  0.13534804    -0.02100
C1091       C  0.62826216  0.99741896  0.11110112     0.00500
C1092       C  0.63801396  0.08687744  0.11279834    -0.22400
C1093       C  0.62632431  0.62336618  0.14349541    -0.22600
C1094       C  0.60238234  0.05146271  0.15171213     0.00400
H1095       H  0.65493061  0.12401008  0.09657069     0.14200
H1096       H  0.62940736  0.69169563  0.15263463     0.14200
In1097     In  0.72494861  0.80639947  0.43964958     1.36900
C1098       C  0.76108548  0.87185884  0.38221635     0.79000
O1099       O  0.69248535  0.69430614  0.41442699    -0.59500
O1100       O  0.69739546  0.82012961  0.38487273    -0.50400
C1101       C  0.75588719  0.73959311  0.49242618     0.71600
O1102       O  0.75331001  0.81739213  0.49613919    -0.45200
C1103       C  0.69713760  0.86958269  0.49569869     0.76300
O1104       O  0.74866869  0.79267052  0.38310566    -0.57100
O1105       O  0.69922683  0.79094006  0.49674946    -0.47200
O1106       O  0.75507849  0.92032517  0.41160449    -0.53500
C1107       C  0.68464135  0.74133308  0.38562824     0.86500
O1108       O  0.74211961  0.69485804  0.46222230    -0.55400
O1109       O  0.71033448  0.91780299  0.46695693    -0.58700
N1110       N  0.85137952  0.65561310  0.12877857    -0.02100
C1111       C  0.87036829  0.68123251  0.09896702     0.00500
C1112       C  0.87981126  0.77076570  0.09988904    -0.22400
C1113       C  0.86577837  0.80345099  0.12908559    -0.22600
C1114       C  0.84793841  0.73373187  0.14638217     0.00400
H1115       H  0.89528575  0.80855889  0.08062623     0.14200
H1116       H  0.86977151  0.87226982  0.13793454     0.14200
N1117       N  0.84364388  0.81539127  0.21508474    -0.02100
C1118       C  0.84355713  0.77529527  0.25475850     0.00500
C1119       C  0.82789929  0.69209659  0.25350619    -0.22400
C1120       C  0.82134068  0.67423315  0.21008048    -0.22600
C1121       C  0.83346322  0.74742008  0.18640317     0.00400
H1122       H  0.82422779  0.64592716  0.28035063     0.14200
H1123       H  0.81258427  0.60947279  0.19725679     0.14200
N1124       N  0.58925613  0.88901181  0.13160507    -0.02100
C1125       C  0.57339733  0.86494900  0.09567183     0.00500
C1126       C  0.56630893  0.77467380  0.09144727    -0.22400
C1127       C  0.57851740  0.74064120  0.12460526    -0.22600
C1128       C  0.59279892  0.81037557  0.14896904     0.00400
H1129       H  0.55310126  0.73716481  0.06716111     0.14200
H1130       H  0.57591549  0.67148643  0.13134577     0.14200
N1131       N  0.59045938  0.72335175  0.21844336    -0.02100
C1132       C  0.58542450  0.76180114  0.25648193     0.00500
C1133       C  0.60118857  0.84463263  0.26115148    -0.22400
C1134       C  0.61208096  0.86567244  0.22120948    -0.22600
C1135       C  0.60301943  0.79398130  0.19389738     0.00400
H1136       H  0.60268363  0.88852377  0.28890018     0.14200
H1137       H  0.62190447  0.93132765  0.21168660     0.14200
In1138     In  0.97115813  0.53159679  0.42967227     1.36900
C1139       C  0.93818107  0.57088673  0.48504480     0.79000
O1140       O  0.98940144  0.92271670  0.45418824    -0.59500
O1141       O  0.49836174  0.07278039  0.48655624    -0.50400
C1142       C  0.92743886  0.92027451  0.37585921     0.71600
O1143       O  0.93252132  0.00300560  0.37899204    -0.45200
C1144       C  0.00654565  0.60824650  0.37383142     0.76300
O1145       O  0.94379262  0.49682612  0.48449956    -0.57100
O1146       O  0.49097854  0.54048495  0.37264969    -0.47200
O1147       O  0.95022335  0.62636992  0.45780683    -0.53500
C1148       C  0.00159297  0.97910673  0.48166184     0.86500
O1149       O  0.94244864  0.88305610  0.39765530    -0.55400
O1150       O  0.99745813  0.65266386  0.40158501    -0.58700
C1151       C  0.52129895  0.66369797  0.34295432     0.01200
C1152       C  0.05032278  0.70104468  0.36097416    -0.10600
C1153       C  0.53992819  0.67015673  0.27002831     0.03500
C1154       C  0.56344684  0.72445978  0.28617491     0.01200
C1155       C  0.56517915  0.74870861  0.33090399    -0.10600
C1156       C  0.54441816  0.71901925  0.35899578     0.03400
H1157       H  0.05197758  0.71557342  0.39589551     0.16300
H1158       H  0.58293457  0.78969745  0.34429380     0.16300
C1159       C  0.54763085  0.74041763  0.40504413     0.38000
C1160       C  0.09564948  0.77544635  0.35549322     0.37900
N1161       N  0.54918192  0.75445230  0.44236180    -0.42400
N1162       N  0.11490266  0.80943160  0.37288774    -0.42300
C1163       C  0.52712308  0.98351198  0.01013711     0.01200
C1164       C  0.54339809  0.93463276  0.99264806    -0.10600
C1165       C  0.56138447  0.90559303  0.01936637     0.03500
C1166       C  0.56284166  0.92299066  0.06509473     0.01200
C1167       C  0.54821802  0.97889950  0.08188325    -0.10600
C1168       C  0.53064339  0.01024433  0.05463724     0.03400
H1169       H  0.54564465  0.93807950  0.45871645     0.16300
H1170       H  0.54885710  0.99208839  0.11683309     0.16300
C1171       C  0.51430442  0.55600374  0.08003145     0.38000
C1172       C  0.57714132  0.85370163  0.99926209     0.37900
N1173       N  0.49941436  0.58866848  0.09598728    -0.42400
N1174       N  0.58962478  0.81205873  0.98283362    -0.42300
C1175       C  0.86485205  0.80285587  0.28780296     0.01200
C1176       C  0.85961724  0.83063539  0.32956070    -0.10600
C1177       C  0.87977712  0.86940387  0.35877837     0.03500
C1178       C  0.90557530  0.87228615  0.34819236     0.01200
C1179       C  0.91068618  0.83787636  0.30794519    -0.10600
C1180       C  0.89072371  0.80556404  0.27729980     0.03400
H1181       H  0.83984993  0.82653788  0.33843467     0.16300
H1182       H  0.93049105  0.84100443  0.29939022     0.16300
C1183       C  0.89766928  0.77768488  0.23509810     0.38000
C1184       C  0.87354012  0.91002292  0.39820853     0.37900
N1185       N  0.90415066  0.75667083  0.20163080    -0.42400
N1186       N  0.86823175  0.94378271  0.42923938    -0.42300
C1187       C  0.91645099  0.57393693  0.01308692     0.01200
C1188       C  0.90190832  0.63138402  0.99689824    -0.10600
C1189       C  0.88376919  0.65701827  0.02292370     0.03500
C1190       C  0.88028565  0.62705373  0.06678596     0.01200
C1191       C  0.89331780  0.56415289  0.08195133    -0.10600
C1192       C  0.91113283  0.53658036  0.05527508     0.03400
H1193       H  0.90883199  0.68378746  0.46856995     0.16300
H1194       H  0.89126161  0.54216523  0.11574479     0.16300
C1195       C  0.92514666  0.47559160  0.07333789     0.38000
C1196       C  0.86980622  0.71817687  0.00462098     0.37900
N1197       N  0.93636915  0.42658769  0.08776946    -0.42400
N1198       N  0.85830956  0.76642809  0.99027645    -0.42300
C1199       C  0.63929137  0.94146101  0.08147964     0.01200
C1200       C  0.63876046  0.95991895  0.03630757    -0.10600
C1201       C  0.65528606  0.93153047  0.00760601     0.03500
C1202       C  0.67220666  0.88128008  0.02366077     0.01200
C1203       C  0.67148314  0.85723321  0.06811085    -0.10000
C1204       C  0.65590877  0.88943150  0.09735140     0.03400
H1205       H  0.62659346  0.00175573  0.02393129     0.16300
H1206       H  0.68455420  0.81871437  0.08062344     0.16300
C1207       C  0.66001797  0.87740221  0.14370124     0.38000
C1208       C  0.65832858  0.95791914  0.46170674     0.37900
N1209       N  0.66431913  0.86792110  0.18058542    -0.42400
N1210       N  0.65603544  0.96733951  0.42424398    -0.42300
C1211       C  0.61984885  0.64316006  0.29578237     0.01200
C1212       C  0.64263330  0.69987110  0.28119497    -0.10600
C1213       C  0.66364918  0.73233024  0.30985958     0.03500
C1214       C  0.66251443  0.70779653  0.35456051     0.01200
C1215       C  0.63965422  0.65289782  0.36971160    -0.10600
C1216       C  0.61832880  0.62147353  0.34107687     0.03400
H1217       H  0.64444600  0.71712693  0.24671672     0.16300
H1218       H  0.63825547  0.63592844  0.40426308     0.16300
C1219       C  0.59497727  0.57026889  0.35967263     0.38000
C1220       C  0.68671206  0.78721236  0.29190435     0.37900
N1221       N  0.57630721  0.52954666  0.37495014    -0.42400
N1222       N  0.70521009  0.83094574  0.27748961    -0.42300
C1223       C  0.81934808  0.93342421  0.28351365     0.01200
C1224       C  0.82266608  0.98142056  0.32321916    -0.10600
C1225       C  0.80323839  0.96873229  0.35447681     0.03500
C1226       C  0.78064409  0.90175831  0.34819057     0.01200
C1227       C  0.77684589  0.85640191  0.30811471    -0.10600
C1228       C  0.79514582  0.87409462  0.27530577     0.03400
H1229       H  0.84044491  0.02956817  0.33020643     0.16300
H1230       H  0.75895144  0.80788402  0.30180859     0.16300
C1231       C  0.78714194  0.83368560  0.23318013     0.38000
C1232       C  0.80699797  0.02776314  0.39141272     0.37900
N1233       N  0.77943268  0.80035303  0.20010126    -0.42400
N1234       N  0.81066018  0.07914675  0.41944271    -0.42300
C1235       C  0.80286757  0.61345594  0.07077947     0.01200
C1236       C  0.78731624  0.66007746  0.09255167    -0.10600
C1237       C  0.77035024  0.70036232  0.06870146     0.03500
C1238       C  0.76901552  0.69417847  0.02240070     0.01200
C1239       C  0.78526383  0.65056853  0.00082475    -0.10600
C1240       C  0.80207486  0.61060526  0.02451148     0.03400
H1241       H  0.78711343  0.65987624  0.12814100     0.16300
H1242       H  0.79102388  0.65673930  0.46469897     0.16300
C1243       C  0.81827014  0.56624035  0.00056720     0.38000
C1244       C  0.75290891  0.74021466  0.09243932     0.37900
N1245       N  0.83174455  0.53247279  0.98142478    -0.42400
N1246       N  0.73886276  0.77174876  0.11155242    -0.42300
N1247       N  0.83701110  0.58494715  0.63117012    -0.02100
C1248       C  0.81894008  0.56539633  0.59820242     0.00500
C1249       C  0.81009022  0.47607636  0.59311055    -0.22400
C1250       C  0.82288220  0.43752484  0.62375800    -0.22600
C1251       C  0.83980697  0.50389493  0.64671195     0.00400
H1252       H  0.79535330  0.44272267  0.57002113     0.14200
H1253       H  0.81893446  0.36782646  0.63003663     0.14200
N1254       N  0.84162761  0.91405900  0.71829826    -0.02100
C1255       C  0.84140643  0.95937262  0.75630200     0.00500
C1256       C  0.85909247  0.03936820  0.75459863    -0.22400
C1257       C  0.86574898  0.05210589  0.71152587    -0.22600
C1258       C  0.85216718  0.97886558  0.68888542     0.00400
H1259       H  0.86445955  0.08819982  0.78017747     0.14200
H1260       H  0.87304873  0.61723690  0.70707252     0.14200
N1261       N  0.60052164  0.64900231  0.71617278    -0.02100
C1262       C  0.60122116  0.60689522  0.75515720     0.00500
C1263       C  0.58483963  0.52459099  0.75319128    -0.22400
C1264       C  0.57770073  0.50936699  0.70978730    -0.22600
C1265       C  0.59058257  0.58203844  0.68669331     0.00400
H1266       H  0.58033849  0.47692413  0.77902102     0.14200
H1267       H  0.56861216  0.44539206  0.69638544     0.14200
N1268       N  0.61163680  0.98653722  0.63288289    -0.02100
C1269       C  0.63413840  0.01238116  0.61105270     0.00500
C1270       C  0.64326244  0.10210839  0.61284457    -0.22400
C1271       C  0.62734006  0.63226156  0.63656294    -0.22600
C1272       C  0.60619516  0.06389941  0.64736803     0.00400
H1273       H  0.66056415  0.14033050  0.59812167     0.14200
H1274       H  0.63081209  0.70098949  0.64513145     0.14200
In1275     In  0.72215562  0.80103777  0.94055046     1.36900
C1276       C  0.76036873  0.86721438  0.88600699     0.79000
O1277       O  0.69234154  0.68863102  0.91044647    -0.59500
O1278       O  0.69614218  0.81725224  0.88415625    -0.50400
C1279       C  0.75104643  0.73142084  0.99509195     0.71600
O1280       O  0.74938336  0.81035286  0.99853711    -0.45200
C1281       C  0.69092953  0.85440252  0.99485039     0.76300
O1282       O  0.74806576  0.78787421  0.88661702    -0.57100
O1283       O  0.69341661  0.77622789  0.99386467    -0.47200
O1284       O  0.75323315  0.91557793  0.91429932    -0.53500
C1285       C  0.68453838  0.73710849  0.88240485     0.86500
O1286       O  0.73721185  0.68755361  0.96475574    -0.55400
O1287       O  0.70533721  0.90695866  0.96910508    -0.58700
N1288       N  0.85496272  0.66835596  0.63393227    -0.02100
C1289       C  0.87431294  0.69559421  0.60490523     0.00500
C1290       C  0.88439158  0.78457486  0.60812639    -0.22400
C1291       C  0.87009304  0.81612876  0.63725269    -0.22600
C1292       C  0.85162811  0.74570717  0.65252354     0.00400
H1293       H  0.90035184  0.82295625  0.59020238     0.14200
H1294       H  0.87430261  0.88339504  0.64766576     0.14200
N1295       N  0.84673773  0.82723077  0.72032828    -0.02100
C1296       C  0.84777534  0.78765231  0.75988683     0.00500
C1297       C  0.83283864  0.70332735  0.75932208    -0.22400
C1298       C  0.82556307  0.68466083  0.71621788    -0.22600
C1299       C  0.83679495  0.75834169  0.69210732     0.00400
H1300       H  0.83008787  0.65742680  0.78630426     0.14200
H1301       H  0.81713837  0.61947729  0.70365855     0.14200
N1302       N  0.59457322  0.90167455  0.62828809    -0.02100
C1303       C  0.57722911  0.87960429  0.59435493     0.00500
C1304       C  0.56839777  0.78980158  0.59113780    -0.22400
C1305       C  0.58070092  0.75390943  0.62350981    -0.22600
C1306       C  0.59704135  0.82217679  0.64616269     0.00400
H1307       H  0.55367289  0.75413397  0.56856643     0.14200
H1308       H  0.57644185  0.68500543  0.63114620     0.14200
N1309       N  0.59541559  0.73591436  0.71627876    -0.02100
C1310       C  0.59251387  0.77440089  0.75564110     0.00500
C1311       C  0.60801415  0.85810168  0.75822950    -0.22400
C1312       C  0.61767685  0.87769849  0.71732790    -0.22600
C1313       C  0.60774111  0.80556586  0.69071527     0.00400
H1314       H  0.60992781  0.90428522  0.78507931     0.14200
H1315       H  0.62715323  0.94314879  0.70704301     0.14200
In1316     In  0.97157644  0.52020518  0.93165838     1.36900
C1317       C  0.93702224  0.55589238  0.98518828     0.79000
O1318       O  0.99421527  0.93183896  0.95947275    -0.59500
O1319       O  0.50009256  0.07476596  0.98057413    -0.50400
C1320       C  0.93246063  0.93325796  0.87918948     0.71600
O1321       O  0.93780843  0.01587202  0.88351068    -0.45200
C1322       C  0.00608257  0.59692994  0.87514670     0.76300
O1323       O  0.94290304  0.48225425  0.98468288    -0.57100
O1324       O  0.49979975  0.54759259  0.87413472    -0.47200
O1325       O  0.94964339  0.61270626  0.95919591    -0.53500
C1326       C  0.00626959  0.98941670  0.98652301     0.86500
O1327       O  0.94700985  0.89357628  0.90063678    -0.55400
O1328       O  0.99637404  0.64122906  0.90209234    -0.58700
C1329       C  0.52967792  0.67124818  0.84392678     0.01200
C1330       C  0.02270752  0.61702420  0.79982258    -0.10600
C1331       C  0.57388842  0.75567886  0.83334690     0.03500
C1332       C  0.57174161  0.73691111  0.78763595     0.01200
C1333       C  0.54841646  0.68407734  0.77108844    -0.10600
C1334       C  0.52770505  0.65064447  0.79865171     0.03400
H1335       H  0.00458252  0.57521383  0.78820914     0.16300
H1336       H  0.54623293  0.66922819  0.73623942     0.16300
C1337       C  0.50433254  0.59689151  0.77938837     0.38000
C1338       C  0.03601118  0.63187832  0.72391348     0.37900
N1339       N  0.48561835  0.55394119  0.76382620    -0.42400
N1340       N  0.03095716  0.61542771  0.68726713    -0.42300
C1341       C  0.52750553  0.98690194  0.51263649     0.01200
C1342       C  0.54641806  0.95070894  0.49378745    -0.10600
C1343       C  0.56579852  0.92793160  0.51999026     0.03500
C1344       C  0.56604245  0.93885689  0.56599404     0.01200
C1345       C  0.54846456  0.98189160  0.58434388    -0.10600
C1346       C  0.52938054  0.00658549  0.55803214     0.03400
H1347       H  0.54153160  0.91679261  0.95810288     0.16300
H1348       H  0.54795541  0.98854782  0.61964901     0.16300
C1349       C  0.51054718  0.55293979  0.58228290     0.38000
C1350       C  0.58415616  0.88682355  0.49962519     0.37900
N1351       N  0.49646496  0.58630705  0.60015462    -0.42400
N1352       N  0.59873761  0.85288722  0.48357864    -0.42300
C1353       C  0.86946189  0.81760794  0.79182006     0.01200
C1354       C  0.86451743  0.84281523  0.83419783    -0.10600
C1355       C  0.88484548  0.88022262  0.86329761     0.03500
C1356       C  0.91059695  0.88771878  0.85106418     0.01200
C1357       C  0.91553524  0.85728490  0.80983265    -0.10600
C1358       C  0.89529349  0.82290739  0.78009130     0.03400
H1359       H  0.84479030  0.83592382  0.84409041     0.16300
H1360       H  0.93531153  0.86261187  0.80040064     0.16300
C1361       C  0.90186609  0.79163216  0.73840411     0.38000
C1362       C  0.87872250  0.91166975  0.90518381     0.37900
N1363       N  0.90820398  0.76661666  0.70572569    -0.42400
N1364       N  0.87335454  0.93673245  0.93854002    -0.42300
C1365       C  0.91851690  0.59066683  0.51444793     0.01200
C1366       C  0.90521359  0.65349779  0.50060918    -0.10600
C1367       C  0.88785787  0.67994521  0.52800061     0.03500
C1368       C  0.88367175  0.64423055  0.57077809     0.01200
C1369       C  0.89545100  0.57660093  0.58353310    -0.10600
C1370       C  0.91278353  0.54939718  0.55573272     0.03400
H1371       H  0.90510670  0.65795686  0.96401031     0.16300
H1372       H  0.89293294  0.55052448  0.61657430     0.16300
C1373       C  0.92603065  0.48483525  0.57211809     0.38000
C1374       C  0.87563295  0.74802403  0.51233438     0.37900
N1375       N  0.93667431  0.43328335  0.58547077    -0.42400
N1376       N  0.86588599  0.80288312  0.50030448    -0.42300
C1377       C  0.64636369  0.95881544  0.58249068     0.01200
C1378       C  0.64478554  0.97284323  0.53705554    -0.10600
C1379       C  0.66119300  0.94425121  0.50831863     0.03500
C1380       C  0.67969722  0.90099109  0.52505190     0.01200
C1381       C  0.68097390  0.88488405  0.57029365    -0.10000
C1382       C  0.66495822  0.91553543  0.59920674     0.03400
H1383       H  0.63143516  0.00999998  0.52422735     0.16300
H1384       H  0.69536265  0.85208635  0.58323844     0.16300
C1385       C  0.66989896  0.90998970  0.64579396     0.38000
C1386       C  0.65500450  0.95597370  0.96192197     0.37900
N1387       N  0.67453885  0.90645035  0.68297765    -0.42400
N1388       N  0.65524360  0.97502482  0.92518914    -0.42300
C1389       C  0.62167509  0.63999431  0.78979584     0.01200
C1390       C  0.64439624  0.69907896  0.77646088    -0.10600
C1391       C  0.66486577  0.73163461  0.80600002     0.03500
C1392       C  0.66336234  0.70344961  0.85005104     0.01200
C1393       C  0.64083469  0.64480505  0.86376716    -0.10600
C1394       C  0.61997190  0.61362845  0.83440957     0.03400
H1395       H  0.64640087  0.71975728  0.74245500     0.16300
H1396       H  0.63914859  0.62583888  0.89801799     0.16300
C1397       C  0.59680920  0.55908680  0.85197969     0.38000
C1398       C  0.68750416  0.79207666  0.78983076     0.37900
N1399       N  0.57833476  0.51571872  0.86665601    -0.42400
N1400       N  0.70559184  0.84060899  0.77682786    -0.42300
C1401       C  0.82039909  0.93586379  0.78950443     0.01200
C1402       C  0.82252352  0.98354360  0.82917628    -0.10600
C1403       C  0.80258522  0.96808335  0.85960397     0.03500
C1404       C  0.78088818  0.89740132  0.85321672     0.01200
C1405       C  0.77855280  0.85062565  0.81353986    -0.10600
C1406       C  0.79703810  0.87218804  0.78102632     0.03400
H1407       H  0.83947840  0.03532677  0.83627166     0.16300
H1408       H  0.76132877  0.79932432  0.80678892     0.16300
C1409       C  0.78971477  0.83316406  0.73838333     0.38000
C1410       C  0.80452598  0.03049057  0.89472266     0.37900
N1411       N  0.78268311  0.80157262  0.70463073    -0.42400
N1412       N  0.80690164  0.08562620  0.92071297    -0.42300
C1413       C  0.80806157  0.62805060  0.57164155     0.01200
C1414       C  0.79199705  0.67459109  0.59191287    -0.10600
C1415       C  0.77505779  0.71264617  0.56674376     0.03500
C1416       C  0.77416956  0.70445967  0.52046541     0.01200
C1417       C  0.79115587  0.66161529  0.50023795    -0.10600
C1418       C  0.80807509  0.62403417  0.52537721     0.03400
H1419       H  0.79130591  0.67564760  0.62746843     0.16300
H1420       H  0.78463332  0.64697006  0.96521426     0.16300
C1421       C  0.82522624  0.58059723  0.50319893     0.38000
C1422       C  0.75722144  0.75260777  0.58933862     0.37900
N1423       N  0.83950532  0.54713761  0.48597210    -0.42400
N1424       N  0.74303709  0.78486316  0.60765435    -0.42300
loop_ 
_geom_bond_atom_site_label_1 
_geom_bond_atom_site_label_2 
_geom_bond_distance 
_geom_bond_site_symmetry_2 
_ccdc_geom_bond_type 
N1            C5   1.389   1_545  A
N1            C2   1.366       .  A
N1           N42   1.428       .  S
C2            C3   1.377   1_545  A
C2          C167   1.486       .  S
C3            C4   1.359       .  A
C3            H6   1.082       .  S
C4            C5   1.382       .  A
C4            H7   1.077       .  S
C5          C368   1.505       .  S
N8           C12   1.374       .  A
N8            C9   1.361       .  A
N8           N49   1.447       .  S
C9           C10   1.380       .  A
C9          C155   1.504       .  S
C10          C11   1.368       .  A
C10          H13   1.078       .  S
C11          C12   1.382       .  A
C11         H370   1.081       .  S
C12         C361   1.499       .  S
H14         C367   1.077       .  S
N15          C19   1.377       .  A
N15          C16   1.360       .  A
N15          N63   1.444       .  S
C16          C17   1.376       .  A
C16         C143   1.498       .  S
C17          C18   1.374   1_545  A
C17          H20   1.077   1_545  S
C18          C19   1.385   1_565  A
C18          H21   1.081       .  S
C19         C382   1.507       .  S
N22          C26   1.388       .  A
N22          C23   1.364       .  A
N22          N56   1.428       .  S
C23          C24   1.376       .  A
C23         C131   1.481       .  S
C24         C381   1.364       .  A
C24          H27   1.083       .  S
C25         C380   1.362       .  A
C25         C382   1.386       .  A
C25          H28   1.077       .  S
C26         C381   1.385       .  A
C26         C375   1.507       .  S
In29         O31   2.267       .  S
In29         O32   2.225       .  S
In29         O40   2.239       .  S
In29         O34   2.229       .  S
In29         O36   2.210       .  S
In29         O37   2.223       .  S
In29         O38   2.289       .  S
In29         O41   2.235       .  S
C30         C158   1.488       .  S
C30          O36   1.262       .  A
C30          O38   1.269       .  A
O31          C39   1.268       .  A
O32          C39   1.263       .  A
C33         C348   1.474       .  S
C33          O40   1.268       .  A
C33          O34   1.262       .  A
C35         C312   1.476       .  S
C35          O37   1.261       .  A
C35          O41   1.270       .  A
C39         C146   1.483       .  S
N42          C46   1.389       .  A
N42          C43   1.361       .  A
C43          C44   1.374       .  A
C43         C122   1.479       .  S
C44          C45   1.358       .  A
C44          H47   1.082       .  S
C45          C46   1.385       .  A
C45          H48   1.075       .  S
C46          C53   1.504       .  S
N49          C53   1.381       .  A
N49          C50   1.361       .  A
C50          C51   1.372       .  A
C50         C107   1.488       .  S
C51          C52   1.373       .  A
C51          H54   1.080       .  S
C52          C53   1.386       .  A
C52          H55   1.081       .  S
N56          C60   1.388       .  A
N56          C57   1.363       .  A
C57          C58   1.377       .  A
C57          C98   1.482       .  S
C58          C59   1.359       .  A
C58          H61   1.083       .  S
C59          C60   1.383       .  A
C59          H62   1.076       .  S
C60          C67   1.504       .  S
N63          C67   1.380       .  A
N63          C64   1.367       .  A
C64          C65   1.376       .  A
C64          C86   1.504       .  S
C65          C66   1.369       .  A
C65          H68   1.080       .  S
C66          C67   1.383       .  A
C66          H69   1.081       .  S
In70         O77   2.242       .  S
In70         O79   2.249       .  S
In70         O82   2.257       .  S
In70        O428   2.257   1_545  S
In70       O1141   2.235       .  S
In70        O437   2.256   1_545  S
In70        O431   2.221       .  S
In70        O790   2.222       .  S
C71         C297   1.490       .  S
C71          O77   1.262       .  A
C71          O79   1.269       .  A
O72        In426   2.248       .  S
O72          C80   1.268       .  A
O73       In1138   2.237       .  S
O73         C792   1.262   1_655  A
C74         C110   1.478       .  S
C74          O81   1.269       .  A
C74          O75   1.262       .  A
O75        In426   2.230       .  S
C76         C795   1.477       .  S
C76          O82   1.269       .  A
C76         O790   1.260       .  A
O78        In782   2.243       .  S
O78         C788   1.260       .  A
C80         C985   1.485       .  S
C80         O785   1.262       .  A
O81        In426   2.257       .  S
C83          C88   1.410       .  A
C83         C796   1.401       .  A
C83         C788   1.487   1_455  S
C84         C795   1.399       .  A
C84         C797   1.401       .  A
C84          H89   1.085       .  S
C85          C86   1.419       .  A
C85         C796   1.405       .  A
C85         C804   1.443       .  S
C86          C87   1.410       .  A
C87          C88   1.407       .  A
C87          H90   1.084       .  S
C88          C91   1.442       .  S
C91          N93   1.156       .  T
C92         C797   1.443       .  S
C92          N94   1.157       .  T
C95          C96   1.399   1_554  A
C95         C100   1.412       .  A
C95         C970   1.477   1_554  S
C96          C97   1.398   1_556  A
C96         H279   1.085       .  S
C97          C98   1.415       .  A
C97         C104   1.444   1_554  S
C98          C99   1.404       .  A
C99         C100   1.405       .  A
C99         H102   1.081       .  S
C100        C459   1.444       .  S
H101        C274   1.085       .  S
C103        C456   1.443   1_545  S
C103        N105   1.157   1_455  T
C104        N106   1.157       .  T
C107        C108   1.401       .  A
C107        C112   1.416       .  A
C108        C109   1.404       .  A
C108        H113   1.083       .  S
C109        C110   1.412       .  A
C109        C116   1.442       .  S
C110        C111   1.398       .  A
C111        C112   1.402       .  A
C111        H114   1.085       .  S
C112        C115   1.442       .  S
C115        N117   1.157       .  T
C116        N118   1.157       .  T
C119        C120   1.401       .  A
C119        C124   1.417       .  A
C119        C249   1.485   1_554  S
C120        C121   1.399       .  A
C120        H303   1.083   1_554  S
C121        C122   1.410       .  A
C121        C128   1.445       .  S
C122        C123   1.402       .  A
C123        C124   1.408       .  A
C123        H126   1.085       .  S
C124        C127   1.443   1_545  S
H125        C298   1.085       .  S
C127        N129   1.157       .  T
C128        N130   1.157       .  T
C131        C132   1.404       .  A
C131        C136   1.411       .  A
C132        C133   1.399       .  A
C132        H137   1.085       .  S
C133        C134   1.408       .  A
C133        C318   1.444   1_554  S
C134        C135   1.405       .  A
C134        C213   1.478   1_554  S
C135        C136   1.405       .  A
C135        H138   1.085       .  S
C136        C139   1.442       .  S
C139        N141   1.157       .  T
C140        C311   1.443       .  S
C140        N142   1.156       .  T
C143        C144   1.407       .  A
C143        C148   1.417       .  A
C144        C145   1.396       .  A
C144        H149   1.084       .  S
C145        C146   1.408       .  A
C145        C152   1.445       .  S
C146        C147   1.406       .  A
C147        C148   1.410       .  A
C147        H150   1.084       .  S
C148        C151   1.443       .  S
C151        N153   1.158       .  T
C152        N154   1.157       .  T
C155        C156   1.410       .  A
C155        C160   1.419       .  A
C156        C157   1.406       .  A
C156        H161   1.083       .  S
C157        C158   1.412       .  A
C157        C164   1.437       .  S
C158        C159   1.400       .  A
C159        C160   1.398       .  A
C159        H162   1.085       .  S
C160        C163   1.442       .  S
C163        N165   1.157       .  T
C164        N166   1.155       .  T
C167        C168   1.404       .  A
C167        C172   1.415       .  A
C168        C169   1.409       .  A
C168        H173   1.084       .  S
C169        C170   1.415       .  A
C169        C176   1.443       .  S
C170        C171   1.399       .  A
C170        C211   1.483   1_554  S
C171        C172   1.398       .  A
C171        H352   1.085   1_554  S
C172        C175   1.443       .  S
H174        C349   1.085       .  S
C175        N177   1.156   1_554  T
C176        N178   1.157       .  T
N179        C183   1.386       .  A
N179        C180   1.361       .  A
N179        N220   1.427       .  S
C180        C181   1.374   1_545  A
C180        C345   1.478       .  S
C181        C182   1.363       .  A
C181        H184   1.081       .  S
C182        C183   1.384   1_565  A
C182        H185   1.078       .  S
C183        C546   1.501   1_545  S
N186        C190   1.375       .  A
N186        C187   1.360       .  A
N186        N227   1.443       .  S
C187        C188   1.373       .  A
C187        C333   1.489       .  S
C188        C189   1.374       .  A
C188        H191   1.080       .  S
C189        C190   1.384       .  A
C189        H548   1.081       .  S
C190        C539   1.495       .  S
H192        C545   1.081       .  S
N193        C197   1.379       .  A
N193        C194   1.363       .  A
N193        N241   1.447       .  S
C194        C195   1.379   1_545  A
C194        C321   1.509       .  S
C195        C196   1.372       .  A
C195        H198   1.075       .  S
C196        C197   1.383   1_565  A
C196        H199   1.081       .  S
C197        C560   1.511       .  S
N200        C204   1.388       .  A
N200        C201   1.364       .  A
N200        N234   1.428       .  S
C201        C202   1.376       .  A
C201        C309   1.480       .  S
C202        C559   1.362       .  A
C202        H205   1.083       .  S
C203        C558   1.363       .  A
C203        C560   1.384       .  A
C203        H206   1.076       .  S
C204        C559   1.385       .  A
C204        C553   1.505       .  S
In207       O209   2.281       .  S
In207       O210   2.236       .  S
In207       O218   2.249       .  S
In207       O212   2.238       .  S
In207       O214   2.238       .  S
In207       O215   2.236       .  S
In207       O216   2.255       .  S
In207       O219   2.241       .  S
C208        C336   1.476       .  S
C208        O214   1.261       .  A
C208        O216   1.267       .  A
O209        C217   1.268       .  A
O210        C217   1.260       .  A
C211        O218   1.270       .  A
C211        O212   1.262       .  A
C213        O215   1.262       .  A
C213        O219   1.268       .  A
C217        C324   1.492       .  S
N220        C224   1.391       .  A
N220        C221   1.370       .  A
C221        C222   1.373       .  A
C221        C300   1.492       .  S
C222        C223   1.351       .  A
C222        H225   1.080       .  S
C223        C224   1.380       .  A
C223        H226   1.071       .  S
C224        C231   1.508       .  S
N227        C231   1.378       .  A
N227        C228   1.357       .  A
C228        C229   1.376       .  A
C228        C285   1.502       .  S
C229        C230   1.376       .  A
C229        H232   1.077       .  S
C230        C231   1.383       .  A
C230        H233   1.082       .  S
N234        C238   1.388       .  A
N234        C235   1.362       .  A
C235        C236   1.377       .  A
C235        C276   1.480       .  S
C236        C237   1.362       .  A
C236        H239   1.083       .  S
C237        C238   1.383       .  A
C237        H240   1.076       .  S
C238        C245   1.503       .  S
N241        C245   1.380       .  A
N241        C242   1.367       .  A
C242        C243   1.372       .  A
C242        C264   1.493       .  S
C243        C244   1.367       .  A
C243        H246   1.080       .  S
C244        C245   1.385       .  A
C244        H247   1.080       .  S
In248       O606   2.234   1_545  S
In248      O1319   2.242       .  S
In248       O615   2.234   1_545  S
In248       O609   2.222       .  S
In248       O255   2.239   1_545  S
In248       O968   2.220       .  S
In248       O257   2.247       .  S
In248       O260   2.247       .  S
C249        O255   1.263   1_545  A
C249        O257   1.271       .  A
O250       In604   2.234       .  S
O250        C258   1.269       .  A
O251      In1316   2.239   1_455  S
O251        C970   1.262       .  A
C252        C288   1.477       .  S
C252        O259   1.269       .  A
C252        O253   1.264       .  A
O253       In604   2.217       .  S
C254        C973   1.476       .  S
C254        O968   1.262       .  A
C254        O260   1.271       .  A
O256       In960   2.234       .  S
O256        C966   1.260   1_655  A
C258        C807   1.476   1_556  S
C258        O963   1.263       .  A
O259       In604   2.242       .  S
C261        C974   1.402       .  A
C261        C266   1.411       .  A
C261        C966   1.481       .  S
C262        C973   1.399       .  A
C262        C975   1.401       .  A
C262        H267   1.085       .  S
C263        C974   1.405       .  A
C263        C264   1.415       .  A
C263        C982   1.444       .  S
C264        C265   1.405       .  A
C265        C266   1.405       .  A
C265        H268   1.084       .  S
C266        C269   1.444       .  S
C269        N271   1.157       .  T
C270        C975   1.444       .  S
C270        N272   1.157       .  T
C273        C274   1.400       .  A
C273        C278   1.413       .  A
C273        C792   1.478       .  S
C274        C275   1.398       .  A
C275        C276   1.414       .  A
C275        C282   1.443       .  S
C276        C277   1.403       .  A
C277        C278   1.405       .  A
C277        H280   1.084       .  S
C278        C637   1.443       .  S
C281        C634   1.443   1_545  S
C281        N283   1.157   1_455  T
C282        N284   1.157       .  T
C285        C286   1.411       .  A
C285        C290   1.423       .  A
C286        C287   1.406       .  A
C286        H291   1.083       .  S
C287        C288   1.406       .  A
C287        C294   1.436       .  S
C288        C289   1.392       .  A
C289        C290   1.396       .  A
C289        H292   1.085       .  S
C290        C293   1.440       .  S
C293        N295   1.156       .  T
C294        N296   1.154       .  T
C297        C298   1.399       .  A
C297        C302   1.419       .  A
C298        C299   1.397       .  A
C299        C300   1.419       .  A
C299        C306   1.446       .  S
C300        C301   1.403       .  A
C301        C302   1.411       .  A
C301        H304   1.084       .  S
C302        C305   1.443   1_545  S
C305        N307   1.157       .  T
C306        N308   1.157       .  T
C309        C310   1.406       .  A
C309        C314   1.412       .  A
C310        C311   1.399       .  A
C310        H315   1.085       .  S
C311        C312   1.406       .  A
C312        C313   1.403       .  A
C313        C314   1.403       .  A
C313        H316   1.085       .  S
C314        C317   1.441       .  S
C317        N319   1.157       .  T
C318        N320   1.157       .  T
C321        C322   1.409       .  A
C321        C326   1.420       .  A
C322        C323   1.400       .  A
C322        H327   1.084       .  S
C323        C324   1.412       .  A
C323        C330   1.445       .  S
C324        C325   1.406       .  A
C325        C326   1.411       .  A
C325        H328   1.083       .  S
C326        C329   1.443       .  S
C329        N331   1.158   1_545  T
C330        N332   1.157       .  T
C333        C334   1.402       .  A
C333        C338   1.417       .  A
C334        C335   1.404       .  A
C334        H339   1.080       .  S
C335        C336   1.410       .  A
C335        C342   1.441       .  S
C336        C337   1.397       .  A
C337        C338   1.402       .  A
C337        H340   1.085       .  S
C338        C341   1.441       .  S
C341        N343   1.157       .  T
C342        N344   1.156       .  T
C345        C346   1.403       .  A
C345        C350   1.413       .  A
C346        C347   1.404       .  A
C346        H351   1.085       .  S
C347        C348   1.412       .  A
C347        C354   1.444       .  S
C348        C349   1.399       .  A
C349        C350   1.397       .  A
C350        C353   1.443       .  S
C353        N355   1.157       .  T
C354        N356   1.157       .  T
N357        C361   1.387       .  A
N357        C358   1.365       .  A
N357        N398   1.428       .  S
C358        C359   1.377       .  A
C358        C523   1.484       .  S
C359        C360   1.358       .  A
C359        H362   1.081       .  S
C360        C361   1.381       .  A
C360        H363   1.075       .  S
N364        C368   1.380       .  A
N364        C365   1.367       .  A
N364        N405   1.446       .  S
C365        C366   1.374   1_565  A
C365        C511   1.497       .  S
C366        C367   1.369       .  A
C366        H369   1.080       .  S
C367        C368   1.383   1_545  A
N371        C375   1.375       .  A
N371        C372   1.357       .  A
N371        N419   1.447       .  S
C372        C373   1.375       .  A
C372        C499   1.491       .  S
C373        C374   1.372       .  A
C373        H376   1.076       .  S
C374        C375   1.387       .  A
C374        H377   1.081       .  S
N378        C382   1.387   1_565  A
N378        C379   1.365       .  A
N378        N412   1.428       .  S
C379        C380   1.375   1_565  A
C379        C487   1.481       .  S
C380        H383   1.083       .  S
C381        H384   1.077       .  S
In385       O387   2.254       .  S
In385       O388   2.216       .  S
In385       O396   2.228       .  S
In385       O390   2.215       .  S
In385       O392   2.236       .  S
In385       O393   2.233       .  S
In385       O394   2.270       .  S
In385       O397   2.250       .  S
C386        C514   1.484       .  S
C386        O392   1.261       .  A
C386        O394   1.269       .  A
O387        C395   1.267       .  A
O388        C395   1.263       .  A
C389        C704   1.472       .  S
C389        O396   1.268       .  A
C389        O390   1.261       .  A
C391        C668   1.483       .  S
C391        O393   1.261       .  A
C391        O397   1.269       .  A
C395        C502   1.476       .  S
N398        C402   1.391       .  A
N398        C399   1.364       .  A
C399        C400   1.375       .  A
C399        C478   1.485       .  S
C400        C401   1.358       .  A
C400        H403   1.082       .  S
C401        C402   1.383       .  A
C401        H404   1.076       .  S
C402        C409   1.510       .  S
N405        C409   1.382       .  A
N405        C406   1.361       .  A
C406        C407   1.374       .  A
C406        C463   1.497       .  S
C407        C408   1.373       .  A
C407        H410   1.079       .  S
C408        C409   1.385       .  A
C408        H411   1.081       .  S
N412        C416   1.388       .  A
N412        C413   1.362       .  A
C413        C414   1.378       .  A
C413        C454   1.483       .  S
C414        C415   1.362       .  A
C414        H417   1.083       .  S
C415        C416   1.383       .  A
C415        H418   1.075       .  S
C416        C423   1.503       .  S
N419        C423   1.381       .  A
N419        C420   1.368       .  A
C420        C421   1.375       .  A
C420        C442   1.499       .  S
C421        C422   1.363       .  A
C421        H424   1.078       .  S
C422        C423   1.384       .  A
C422        H425   1.080       .  S
In426       O785   2.252       .  S
In426       O433   2.243       .  S
In426      O1146   2.242       .  S
In426       O435   2.250       .  S
In426       O438   2.276       .  S
C427        C653   1.487       .  S
C427        O433   1.264       .  A
C427        O435   1.271       .  A
O428        C436   1.267   1_565  A
O429       In782   2.251       .  S
O429       C1148   1.262   1_645  A
C430        C466   1.478       .  S
C430        O437   1.269       .  A
C430        O431   1.262   1_565  A
C432       C1151   1.490       .  S
C432       O1146   1.259       .  A
C432        O438   1.269       .  A
O434      In1138   2.217       .  S
O434       C1144   1.262   1_655  A
C436       C1341   1.481   1_545  S
C436       O1141   1.260       .  A
C439       C1152   1.402       .  A
C439        C444   1.410       .  A
C439       C1144   1.478       .  S
C440       C1151   1.402       .  A
C440       C1153   1.406       .  A
C440        H445   1.085       .  S
C441       C1152   1.405       .  A
C441        C442   1.419       .  A
C441       C1160   1.443       .  S
C442        C443   1.407       .  A
C443        C444   1.399       .  A
C443        H446   1.085       .  S
C444        C447   1.444       .  S
C447        N449   1.157   1_455  T
C448       C1153   1.443       .  S
C448        N450   1.157       .  T
C451        C452   1.401   1_554  A
C451        C456   1.414       .  A
C451       C1326   1.483   1_554  S
C452        C453   1.399   1_556  A
C452        H635   1.085       .  S
C453        C454   1.412       .  A
C453        C460   1.442       .  S
C454        C455   1.404       .  A
C455        C456   1.408       .  A
C455        H458   1.084       .  S
H457        C630   1.085       .  S
C459        N461   1.157   1_455  T
C460        N462   1.157   1_554  T
C463        C464   1.409       .  A
C463        C468   1.419       .  A
C464        C465   1.407       .  A
C464        H469   1.084       .  S
C465        C466   1.408       .  A
C465        C472   1.440       .  S
C466        C467   1.396       .  A
C467        C468   1.398       .  A
C467        H470   1.086       .  S
C468        C471   1.442       .  S
C471        N473   1.157       .  T
C472        N474   1.156       .  T
C475        C476   1.402   1_554  A
C475        C480   1.419       .  A
C475        C605   1.490   1_554  S
C476        C477   1.400   1_556  A
C476        H659   1.084       .  S
C477        C478   1.411       .  A
C477        C484   1.444       .  S
C478        C479   1.403       .  A
C479        C480   1.410       .  A
C479        H482   1.084       .  S
C480        C483   1.443       .  S
H481        C654   1.085       .  S
C483        N485   1.157       .  T
C484        N486   1.157   1_554  T
C487        C488   1.405       .  A
C487        C492   1.413       .  A
C488        C489   1.400       .  A
C488        H493   1.085   1_565  S
C489        C490   1.406       .  A
C489        C674   1.443   1_554  S
C490        C491   1.403       .  A
C490        C569   1.477   1_554  S
C491        C492   1.404       .  A
C491        H494   1.085       .  S
C492        C495   1.441       .  S
C495        N497   1.157       .  T
C496        C667   1.443       .  S
C496        N498   1.157       .  T
C499        C500   1.406       .  A
C499        C504   1.414       .  A
C500        C501   1.391       .  A
C500        H505   1.085       .  S
C501        C502   1.406       .  A
C501        C508   1.444       .  S
C502        C503   1.406       .  A
C503        C504   1.408       .  A
C503        H506   1.083       .  S
C504        C507   1.443       .  S
C507        N509   1.157       .  T
C508        N510   1.157       .  T
C511        C512   1.410       .  A
C511        C516   1.415       .  A
C512        C513   1.410       .  A
C512        H517   1.084       .  S
C513        C514   1.410       .  A
C513        C520   1.442       .  S
C514        C515   1.398       .  A
C515        C516   1.400       .  A
C515        H518   1.082       .  S
C516        C519   1.441       .  S
C519        N521   1.156       .  T
C520        N522   1.157       .  T
C523        C524   1.404       .  A
C523        C528   1.417       .  A
C524        C525   1.407       .  A
C524        H529   1.084       .  S
C525        C526   1.414       .  A
C525        C532   1.443       .  S
C526        C527   1.398       .  A
C526        C567   1.477   1_554  S
C527        C528   1.395       .  A
C527        H708   1.085   1_554  S
C528        C531   1.444       .  S
H530        C705   1.084       .  S
C531        N533   1.157   1_554  T
C532        N534   1.157       .  T
N535        C539   1.385       .  A
N535        C536   1.362       .  A
N535        N576   1.428       .  S
C536        C537   1.371       .  A
C536        C701   1.474       .  S
C537        C538   1.351       .  A
C537        H540   1.078       .  S
C538        C539   1.385       .  A
C538        H541   1.074       .  S
N542        C546   1.379       .  A
N542        C543   1.365       .  A
N542        N583   1.445       .  S
C543        C544   1.371   1_565  A
C543        C689   1.492       .  S
C544        C545   1.370       .  A
C544        H547   1.079       .  S
C545        C546   1.384   1_545  A
N549        C553   1.377       .  A
N549        C550   1.364       .  A
N549        N597   1.446       .  S
C550        C551   1.377       .  A
C550        C677   1.504       .  S
C551        C552   1.373       .  A
C551        H554   1.076       .  S
C552        C553   1.383       .  A
C552        H555   1.081       .  S
N556        C560   1.390   1_565  A
N556        C557   1.366       .  A
N556        N590   1.429       .  S
C557        C558   1.376   1_565  A
C557        C665   1.486       .  S
C558        H561   1.083       .  S
C559        H562   1.078       .  S
In563       O565   2.266       .  S
In563       O566   2.232       .  S
In563       O574   2.234       .  S
In563       O568   2.240       .  S
In563       O570   2.239       .  S
In563       O571   2.231       .  S
In563       O572   2.262       .  S
In563       O575   2.248       .  S
C564        C692   1.480       .  S
C564        O570   1.261       .  A
C564        O572   1.268       .  A
O565        C573   1.266       .  A
O566        C573   1.260       .  A
C567        O574   1.268       .  A
C567        O568   1.263       .  A
C569        O571   1.261       .  A
C569        O575   1.268       .  A
C573        C680   1.485       .  S
N576        C580   1.390       .  A
N576        C577   1.364       .  A
C577        C578   1.376       .  A
C577        C656   1.482       .  S
C578        C579   1.357       .  A
C578        H581   1.082       .  S
C579        C580   1.382       .  A
C579        H582   1.077       .  S
C580        C587   1.505       .  S
N583        C587   1.376       .  A
N583        C584   1.361       .  A
C584        C585   1.377       .  A
C584        C641   1.499       .  S
C585        C586   1.369       .  A
C585        H588   1.077       .  S
C586        C587   1.381       .  A
C586        H589   1.078       .  S
N590        C594   1.390       .  A
N590        C591   1.365       .  A
C591        C592   1.378       .  A
C591        C632   1.489       .  S
C592        C593   1.361       .  A
C592        H595   1.083       .  S
C593        C594   1.382       .  A
C593        H596   1.076       .  S
C594        C601   1.505       .  S
N597        C601   1.380       .  A
N597        C598   1.362       .  A
C598        C599   1.373       .  A
C598        C620   1.493       .  S
C599        C600   1.367       .  A
C599        H602   1.080       .  S
C600        C601   1.386       .  A
C600        H603   1.080       .  S
In604       O963   2.229       .  S
In604       O611   2.246       .  S
In604      O1324   2.230       .  S
In604       O613   2.257       .  S
In604       O616   2.277       .  S
C605        O611   1.262       .  A
C605        O613   1.272       .  A
O606        C614   1.269   1_565  A
O607       In960   2.241       .  S
O607       C1326   1.263   1_645  A
C608        C644   1.474       .  S
C608        O615   1.270       .  A
C608        O609   1.264   1_565  A
C610       C1329   1.489       .  S
C610       O1324   1.262       .  A
C610        O616   1.272       .  A
O612      In1316   2.216       .  S
O612       C1322   1.262   1_655  A
C614       C1163   1.482   1_546  S
C614       O1319   1.264       .  A
C617       C1330   1.397       .  A
C617        C622   1.405       .  A
C617       C1322   1.472       .  S
C618       C1329   1.403       .  A
C618       C1331   1.408       .  A
C618        H623   1.085       .  S
C619       C1330   1.399       .  A
C619        C620   1.419       .  A
C619       C1338   1.444       .  S
C620        C621   1.408       .  A
C621        C622   1.402       .  A
C621        H624   1.084       .  S
C622        C625   1.441       .  S
C625        N627   1.156       .  T
C626       C1331   1.442       .  S
C626        N628   1.157       .  T
C629        C630   1.401       .  A
C629        C634   1.417       .  A
C629       C1148   1.488       .  S
C630        C631   1.400       .  A
C631        C632   1.414       .  A
C631        C638   1.445       .  S
C632        C633   1.405       .  A
C633        C634   1.410       .  A
C633        H636   1.083       .  S
C637        N639   1.157   1_455  T
C638        N640   1.157       .  T
C641        C642   1.409       .  A
C641        C646   1.422       .  A
C642        C643   1.402       .  A
C642        H647   1.083       .  S
C643        C644   1.405       .  A
C643        C650   1.439       .  S
C644        C645   1.396       .  A
C645        C646   1.400       .  A
C645        H648   1.085       .  S
C646        C649   1.442       .  S
C649        N651   1.157       .  T
C650        N652   1.155       .  T
C653        C654   1.402       .  A
C653        C658   1.417       .  A
C654        C655   1.400       .  A
C655        C656   1.411       .  A
C655        C662   1.444       .  S
C656        C657   1.402       .  A
C657        C658   1.409       .  A
C657        H660   1.084       .  S
C658        C661   1.442       .  S
C661        N663   1.157       .  T
C662        N664   1.157       .  T
C665        C666   1.407       .  A
C665        C670   1.414       .  A
C666        C667   1.402       .  A
C666        H671   1.085       .  S
C667        C668   1.409       .  A
C668        C669   1.404       .  A
C669        C670   1.405       .  A
C669        H672   1.085       .  S
C670        C673   1.441       .  S
C673        N675   1.157       .  T
C674        N676   1.157       .  T
C677        C678   1.408       .  A
C677        C682   1.420       .  A
C678        C679   1.398       .  A
C678        H683   1.084       .  S
C679        C680   1.410       .  A
C679        C686   1.444       .  S
C680        C681   1.404       .  A
C681        C682   1.408       .  A
C681        H684   1.084       .  S
C682        C685   1.442       .  S
C685        N687   1.158       .  T
C686        N688   1.157       .  T
C689        C690   1.405       .  A
C689        C694   1.414       .  A
C690        C691   1.406       .  A
C690        H695   1.082       .  S
C691        C692   1.409       .  A
C691        C698   1.442       .  S
C692        C693   1.400       .  A
C693        C694   1.404       .  A
C693        H696   1.082       .  S
C694        C697   1.444       .  S
C697        N699   1.157       .  T
C698        N700   1.157       .  T
C701        C702   1.400       .  A
C701        C706   1.416       .  A
C702        C703   1.400       .  A
C702        H707   1.082       .  S
C703        C704   1.414       .  A
C703        C710   1.444       .  S
C704        C705   1.398       .  A
C705        C706   1.393       .  A
C706        C709   1.448       .  S
C709        N711   1.158       .  T
C710        N712   1.157       .  T
N713        C717   1.385   1_545  A
N713        C714   1.364       .  A
N713        N754   1.427       .  S
C714        C715   1.376   1_545  A
C714        C879   1.484       .  S
C715        C716   1.358       .  A
C715        H718   1.081       .  S
C716        C717   1.381       .  A
C716        H719   1.076       .  S
C717       C1080   1.497       .  S
N720        C724   1.380       .  A
N720        C721   1.366       .  A
N720        N761   1.444       .  S
C721        C722   1.375       .  A
C721        C867   1.501       .  S
C722        C723   1.368       .  A
C722        H725   1.079       .  S
C723        C724   1.381       .  A
C723       H1082   1.076       .  S
C724       C1073   1.505       .  S
H726       C1079   1.081       .  S
N727        C731   1.378       .  A
N727        C728   1.359       .  A
N727        N775   1.447       .  S
C728        C729   1.377       .  A
C728        C855   1.498       .  S
C729        C730   1.374   1_545  A
C729        H732   1.077   1_545  S
C730        C731   1.385   1_565  A
C730        H733   1.081       .  S
C731       C1094   1.510       .  S
N734        C738   1.393       .  A
N734        C735   1.369       .  A
N734        N768   1.430       .  S
C735        C736   1.377       .  A
C735        C843   1.491       .  S
C736       C1093   1.363       .  A
C736        H739   1.083       .  S
C737       C1092   1.364       .  A
C737       C1094   1.385       .  A
C737        H740   1.075       .  S
C738       C1093   1.384       .  A
C738       C1087   1.513       .  S
In741       O743   2.265       .  S
In741       O744   2.215       .  S
In741       O752   2.249       .  S
In741       O746   2.236       .  S
In741       O748   2.256       .  S
In741       O749   2.243       .  S
In741       O750   2.272       .  S
In741       O753   2.255       .  S
C742        C870   1.492       .  S
C742        O748   1.261       .  A
C742        O750   1.268       .  A
O743        C751   1.268       .  A
O744        C751   1.262       .  A
C745       C1060   1.483       .  S
C745        O752   1.269       .  A
C745        O746   1.262       .  A
C747       C1024   1.487       .  S
C747        O749   1.262       .  A
C747        O753   1.269       .  A
C751        C858   1.481       .  S
N754        C758   1.389       .  A
N754        C755   1.363       .  A
C755        C756   1.376       .  A
C755        C834   1.486       .  S
C756        C757   1.361       .  A
C756        H759   1.082       .  S
C757        C758   1.384       .  A
C757        H760   1.077       .  S
C758        C765   1.509       .  S
N761        C765   1.382       .  A
N761        C762   1.367       .  A
C762        C763   1.375       .  A
C762        C819   1.506       .  S
C763        C764   1.372       .  A
C763        H766   1.079       .  S
C764        C765   1.384       .  A
C764        H767   1.081       .  S
N768        C772   1.388       .  A
N768        C769   1.361       .  A
C769        C770   1.376       .  A
C769        C810   1.475       .  S
C770        C771   1.357       .  A
C770        H773   1.083       .  S
C771        C772   1.383       .  A
C771        H774   1.076       .  S
C772        C779   1.498       .  S
N775        C779   1.378       .  A
N775        C776   1.366       .  A
C776        C777   1.375       .  A
C776        C798   1.498       .  S
C777        C778   1.366       .  A
C777        H780   1.078       .  S
C778        C779   1.383       .  A
C778        H781   1.081       .  S
In782      O1140   2.250   1_545  S
In782      O1149   2.263   1_545  S
In782      O1143   2.227       .  S
In782       O789   2.239   1_545  S
In782       O791   2.250       .  S
In782       O794   2.267       .  S
C783       C1009   1.486       .  S
C783        O789   1.264   1_545  A
C783        O791   1.270       .  A
O784      In1138   2.241       .  S
O784        C792   1.269   1_655  A
C786        C822   1.485       .  S
C786        O793   1.270       .  A
C786        O787   1.263       .  A
O787      In1138   2.234       .  S
C788        O794   1.268       .  A
O793      In1138   2.256       .  S
C795        C800   1.407       .  A
C796        H801   1.085       .  S
C797        C798   1.419       .  A
C798        C799   1.410       .  A
C799        C800   1.404       .  A
C799        H802   1.083       .  S
C800        C803   1.442       .  S
C803        N805   1.156       .  T
C804        N806   1.157       .  T
C807        C808   1.400   1_554  A
C807        C812   1.414       .  A
C808        C809   1.397   1_556  A
C808        H991   1.085       .  S
C809        C810   1.412       .  A
C809        C816   1.444       .  S
C810        C811   1.402       .  A
C811        C812   1.403       .  A
C811        H814   1.085       .  S
C812       C1171   1.443       .  S
H813        C986   1.085       .  S
C815       C1168   1.444       .  S
C815        N817   1.157       .  T
C816        N818   1.157   1_554  T
C819        C820   1.412       .  A
C819        C824   1.420       .  A
C820        C821   1.408       .  A
C820        H825   1.084       .  S
C821        C822   1.408       .  A
C821        C828   1.441       .  S
C822        C823   1.399       .  A
C823        C824   1.403       .  A
C823        H826   1.085       .  S
C824        C827   1.442       .  S
C827        N829   1.157       .  T
C828        N830   1.156       .  T
C831        C832   1.403   1_554  A
C831        C836   1.415       .  A
C831        C961   1.487   1_554  S
C832        C833   1.400   1_556  A
C832       H1015   1.085       .  S
C833        C834   1.411       .  A
C833        C840   1.443       .  S
C834        C835   1.405       .  A
C835        C836   1.409       .  A
C835        H838   1.083       .  S
C836        C839   1.443   1_545  S
H837       C1010   1.085       .  S
C839        N841   1.157       .  T
C840        N842   1.157   1_554  T
C843        C844   1.408       .  A
C843        C848   1.413       .  A
C844        C845   1.404       .  A
C844        H849   1.085       .  S
C845        C846   1.409       .  A
C845       C1030   1.443   1_554  S
C846        C847   1.406       .  A
C846        C925   1.489   1_554  S
C847        C848   1.407       .  A
C847        H850   1.085       .  S
C848        C851   1.441       .  S
C851        N853   1.157       .  T
C852       C1023   1.444       .  S
C852        N854   1.157       .  T
C855        C856   1.407       .  A
C855        C860   1.417       .  A
C856        C857   1.392       .  A
C856        H861   1.084       .  S
C857        C858   1.408       .  A
C857        C864   1.445       .  S
C858        C859   1.407       .  A
C859        C860   1.411       .  A
C859        H862   1.084       .  S
C860        C863   1.443       .  S
C863        N865   1.158   1_545  T
C864        N866   1.157       .  T
C867        C868   1.407       .  A
C867        C872   1.417       .  A
C868        C869   1.406       .  A
C868        H873   1.084       .  S
C869        C870   1.409       .  A
C869        C876   1.440       .  S
C870        C871   1.403       .  A
C871        C872   1.408       .  A
C871        H874   1.084       .  S
C872        C875   1.441       .  S
C875        N877   1.156       .  T
C876        N878   1.156       .  T
C879        C880   1.405       .  A
C879        C884   1.416       .  A
C880        C881   1.408       .  A
C880        H885   1.084       .  S
C881        C882   1.414       .  A
C881        C888   1.444       .  S
C882        C883   1.396       .  A
C882        C923   1.479   1_554  S
C883        C884   1.395       .  A
C883       H1064   1.083   1_554  S
C884        C887   1.447   1_545  S
H886       C1061   1.084       .  S
C887        N889   1.158   1_554  T
C888        N890   1.158       .  T
N891        C895   1.390   1_545  A
N891        C892   1.366       .  A
N891        N932   1.428       .  S
C892        C893   1.374   1_545  A
C892       C1057   1.488       .  S
C893        C894   1.355       .  A
C893        H896   1.078       .  S
C894        C895   1.380       .  A
C894        H897   1.075       .  S
C895       C1258   1.502       .  S
N898        C902   1.383       .  A
N898        C899   1.368       .  A
N898        N939   1.446       .  S
C899        C900   1.374       .  A
C899       C1045   1.502       .  S
C900        C901   1.371       .  A
C900        H903   1.080       .  S
C901        C902   1.382       .  A
C901       H1260   1.077       .  S
C902       C1251   1.510       .  S
H904       C1257   1.081       .  S
N905        C909   1.373       .  A
N905        C906   1.362       .  A
N905        N953   1.446       .  S
C906        C907   1.378       .  A
C906       C1033   1.498       .  S
C907        C908   1.369       .  A
C907        H910   1.077   1_545  S
C908        C909   1.385       .  A
C908        H911   1.080   1_545  S
C909       C1272   1.500       .  S
N912        C916   1.392       .  A
N912        C913   1.369       .  A
N912        N946   1.430       .  S
C913        C914   1.377       .  A
C913       C1021   1.490       .  S
C914       C1271   1.363       .  A
C914        H917   1.083       .  S
C915       C1270   1.361       .  A
C915       C1272   1.385       .  A
C915        H918   1.075       .  S
C916       C1271   1.385       .  A
C916       C1265   1.512       .  S
In919       O921   2.261       .  S
In919       O922   2.221       .  S
In919       O930   2.240       .  S
In919       O924   2.231       .  S
In919       O926   2.251       .  S
In919       O927   2.240       .  S
In919       O928   2.286       .  S
In919       O931   2.265       .  S
C920       C1048   1.492       .  S
C920        O926   1.259       .  A
C920        O928   1.268       .  A
O921        C929   1.268       .  A
O922        C929   1.264       .  A
C923        O930   1.268       .  A
C923        O924   1.261       .  A
C925        O927   1.261       .  A
C925        O931   1.270       .  A
C929       C1036   1.482       .  S
N932        C936   1.391       .  A
N932        C933   1.363       .  A
C933        C934   1.376       .  A
C933       C1012   1.483       .  S
C934        C935   1.359       .  A
C934        H937   1.082       .  S
C935        C936   1.383       .  A
C935        H938   1.077       .  S
C936        C943   1.507       .  S
N939        C943   1.381       .  A
N939        C940   1.363       .  A
C940        C941   1.375       .  A
C940        C997   1.499       .  S
C941        C942   1.370       .  A
C941        H944   1.079       .  S
C942        C943   1.384       .  A
C942        H945   1.081       .  S
N946        C950   1.391       .  A
N946        C947   1.366       .  A
C947        C948   1.377       .  A
C947        C988   1.486       .  S
C948        C949   1.360       .  A
C948        H951   1.083       .  S
C949        C950   1.382       .  A
C949        H952   1.076       .  S
C950        C957   1.507       .  S
N953        C957   1.383       .  A
N953        C954   1.364       .  A
C954        C955   1.374       .  A
C954        C976   1.497       .  S
C955        C956   1.367       .  A
C955        H958   1.079       .  S
C956        C957   1.384       .  A
C956        H959   1.081       .  S
In960      O1318   2.244   1_545  S
In960      O1327   2.251   1_545  S
In960      O1321   2.220       .  S
In960       O967   2.247   1_545  S
In960       O969   2.243       .  S
In960       O972   2.268       .  S
C961        O967   1.265   1_545  A
C961        O969   1.271       .  A
O962      In1316   2.236       .  S
O962        C970   1.269   1_655  A
C964       C1000   1.477       .  S
C964        O971   1.270       .  A
C964        O965   1.262       .  A
O965      In1316   2.222       .  S
C966        O972   1.269   1_455  A
O971      In1316   2.245       .  S
C973        C978   1.406       .  A
C974        H979   1.085   1_455  S
C975        C976   1.419       .  A
C976        C977   1.409       .  A
C977        C978   1.403       .  A
C977        H980   1.084       .  S
C978        C981   1.441       .  S
C981        N983   1.156       .  T
C982        N984   1.157       .  T
C985        C986   1.400       .  A
C985        C990   1.415       .  A
C986        C987   1.400       .  A
C987        C988   1.414       .  A
C987        C994   1.442       .  S
C988        C989   1.405       .  A
C989        C990   1.409       .  A
C989        H992   1.084       .  S
C990       C1349   1.442       .  S
C993       C1346   1.444       .  S
C993        N995   1.157       .  T
C994        N996   1.157       .  T
C997        C998   1.409       .  A
C997       C1002   1.420       .  A
C998        C999   1.404       .  A
C998       H1003   1.084       .  S
C999       C1000   1.406       .  A
C999       C1006   1.441       .  S
C1000      C1001   1.398       .  A
C1001      C1002   1.401       .  A
C1001      H1004   1.085       .  S
C1002      C1005   1.443       .  S
C1005      N1007   1.157       .  T
C1006      N1008   1.156       .  T
C1009      C1010   1.403       .  A
C1009      C1014   1.416       .  A
C1010      C1011   1.401       .  A
C1011      C1012   1.412       .  A
C1011      C1018   1.444       .  S
C1012      C1013   1.402       .  A
C1013      C1014   1.407       .  A
C1013      H1016   1.084       .  S
C1014      C1017   1.443   1_545  S
C1017      N1019   1.157       .  T
C1018      N1020   1.157       .  T
C1021      C1022   1.406       .  A
C1021      C1026   1.413       .  A
C1022      C1023   1.402       .  A
C1022      H1027   1.085       .  S
C1023      C1024   1.410       .  A
C1024      C1025   1.406       .  A
C1025      C1026   1.407       .  A
C1025      H1028   1.085       .  S
C1026      C1029   1.441       .  S
C1029      N1031   1.157       .  T
C1030      N1032   1.157       .  T
C1033      C1034   1.407       .  A
C1033      C1038   1.418       .  A
C1034      C1035   1.395       .  A
C1034      H1039   1.084       .  S
C1035      C1036   1.408       .  A
C1035      C1042   1.444       .  S
C1036      C1037   1.405       .  A
C1037      C1038   1.409       .  A
C1037      H1040   1.084       .  S
C1038      C1041   1.443       .  S
C1041      N1043   1.158   1_545  T
C1042      N1044   1.157       .  T
C1045      C1046   1.410       .  A
C1045      C1050   1.415       .  A
C1046      C1047   1.411       .  A
C1046      H1051   1.084       .  S
C1047      C1048   1.411       .  A
C1047      C1054   1.442       .  S
C1048      C1049   1.401       .  A
C1049      C1050   1.405       .  A
C1049      H1052   1.083       .  S
C1050      C1053   1.441       .  S
C1053      N1055   1.156       .  T
C1054      N1056   1.157       .  T
C1057      C1058   1.404       .  A
C1057      C1062   1.418       .  A
C1058      C1059   1.408       .  A
C1058      H1063   1.083       .  S
C1059      C1060   1.415       .  A
C1059      C1066   1.443       .  S
C1060      C1061   1.398       .  A
C1061      C1062   1.398       .  A
C1062      C1065   1.447   1_545  S
C1065      N1067   1.158       .  T
C1066      N1068   1.157       .  T
N1069      C1073   1.388       .  A
N1069      C1070   1.358       .  A
N1069      N1110   1.427       .  S
C1070      C1071   1.375       .  A
C1070      C1235   1.478       .  S
C1071      C1072   1.364       .  A
C1071      H1074   1.081       .  S
C1072      C1073   1.385       .  A
C1072      H1075   1.078       .  S
N1076      C1080   1.373       .  A
N1076      C1077   1.360       .  A
N1076      N1117   1.446       .  S
C1077      C1078   1.381   1_565  A
C1077      C1223   1.504       .  S
C1078      C1079   1.367       .  A
C1078      H1081   1.078       .  S
C1079      C1080   1.381   1_545  A
N1083      C1087   1.382       .  A
N1083      C1084   1.363       .  A
N1083      N1131   1.445       .  S
C1084      C1085   1.377       .  A
C1084      C1211   1.507       .  S
C1085      C1086   1.375       .  A
C1085      H1088   1.076       .  S
C1086      C1087   1.383       .  A
C1086      H1089   1.081       .  S
N1090      C1094   1.389   1_565  A
N1090      C1091   1.363       .  A
N1090      N1124   1.427       .  S
C1091      C1092   1.375   1_565  A
C1091      C1199   1.482       .  S
C1092      H1095   1.083       .  S
C1093      H1096   1.079       .  S
In1097     O1099   2.278       .  S
In1097     O1100   2.240       .  S
In1097     O1108   2.251       .  S
In1097     O1102   2.244       .  S
In1097     O1104   2.202       .  S
In1097     O1105   2.220       .  S
In1097     O1106   2.283       .  S
In1097     O1109   2.238       .  S
C1098      C1226   1.485       .  S
C1098      O1104   1.261       .  A
C1098      O1106   1.269       .  A
O1099      C1107   1.268       .  A
O1100      C1107   1.261       .  A
C1101      C1416   1.480       .  S
C1101      O1108   1.267       .  A
C1101      O1102   1.262       .  A
C1103      C1380   1.471       .  S
C1103      O1105   1.261       .  A
C1103      O1109   1.269       .  A
C1107      C1214   1.491       .  S
N1110      C1114   1.388       .  A
N1110      C1111   1.366       .  A
C1111      C1112   1.373       .  A
C1111      C1190   1.482       .  S
C1112      C1113   1.352       .  A
C1112      H1115   1.081       .  S
C1113      C1114   1.382       .  A
C1113      H1116   1.081       .  S
C1114      C1121   1.501       .  S
N1117      C1121   1.378       .  A
N1117      C1118   1.359       .  A
C1118      C1119   1.372       .  A
C1118      C1175   1.486       .  S
C1119      C1120   1.372       .  A
C1119      H1122   1.080       .  S
C1120      C1121   1.386       .  A
C1120      H1123   1.081       .  S
N1124      C1128   1.388       .  A
N1124      C1125   1.365       .  A
C1125      C1126   1.379       .  A
C1125      C1166   1.489       .  S
C1126      C1127   1.362       .  A
C1126      H1129   1.083       .  S
C1127      C1128   1.382       .  A
C1127      H1130   1.077       .  S
C1128      C1135   1.504       .  S
N1131      C1135   1.379       .  A
N1131      C1132   1.367       .  A
C1132      C1133   1.376       .  A
C1132      C1154   1.505       .  S
C1133      C1134   1.367       .  A
C1133      H1136   1.080       .  S
C1134      C1135   1.384       .  A
C1134      H1137   1.080       .  S
In1138     O1145   2.227       .  S
In1138     O1147   2.238       .  S
In1138     O1150   2.257       .  S
C1139      C1365   1.483       .  S
C1139      O1145   1.262       .  A
C1139      O1147   1.271       .  A
O1140      C1148   1.269   1_655  A
C1142      C1178   1.477       .  S
C1142      O1149   1.269       .  A
C1142      O1143   1.262   1_565  A
C1144      O1150   1.270   1_455  A
C1151      C1156   1.409       .  A
C1152      H1157   1.085       .  S
C1153      C1154   1.419       .  A
C1154      C1155   1.410       .  A
C1155      C1156   1.407       .  A
C1155      H1158   1.084       .  S
C1156      C1159   1.439       .  S
C1159      N1161   1.155       .  T
C1160      N1162   1.157       .  T
C1163      C1164   1.399   1_554  A
C1163      C1168   1.414   1_565  A
C1164      C1165   1.398   1_556  A
C1164      H1347   1.085       .  S
C1165      C1166   1.416       .  A
C1165      C1172   1.445   1_554  S
C1166      C1167   1.406       .  A
C1167      C1168   1.409   1_565  A
C1167      H1170   1.083       .  S
H1169      C1342   1.085       .  S
C1171      N1173   1.157       .  T
C1172      N1174   1.157       .  T
C1175      C1176   1.400       .  A
C1175      C1180   1.416       .  A
C1176      C1177   1.403       .  A
C1176      H1181   1.083       .  S
C1177      C1178   1.413       .  A
C1177      C1184   1.442       .  S
C1178      C1179   1.398       .  A
C1179      C1180   1.402       .  A
C1179      H1182   1.085       .  S
C1180      C1183   1.442       .  S
C1183      N1185   1.157       .  T
C1184      N1186   1.157       .  T
C1187      C1188   1.399   1_554  A
C1187      C1192   1.417       .  A
C1187      C1317   1.483   1_554  S
C1188      C1189   1.395   1_556  A
C1188      H1371   1.085       .  S
C1189      C1190   1.416       .  A
C1189      C1196   1.446       .  S
C1190      C1191   1.402       .  A
C1191      C1192   1.408       .  A
C1191      H1194   1.084       .  S
C1192      C1195   1.443       .  S
H1193      C1366   1.085       .  S
C1195      N1197   1.157       .  T
C1196      N1198   1.157   1_554  T
C1199      C1200   1.406       .  A
C1199      C1204   1.413       .  A
C1200      C1201   1.401       .  A
C1200      H1205   1.085   1_565  S
C1201      C1202   1.407       .  A
C1201      C1386   1.442   1_554  S
C1202      C1203   1.403       .  A
C1202      C1281   1.479   1_554  S
C1203      C1204   1.404       .  A
C1203      H1206   1.085       .  S
C1204      C1207   1.442       .  S
C1207      N1209   1.157       .  T
C1208      C1379   1.445       .  S
C1208      N1210   1.157       .  T
C1211      C1212   1.408       .  A
C1211      C1216   1.419       .  A
C1212      C1213   1.403       .  A
C1212      H1217   1.084       .  S
C1213      C1214   1.412       .  A
C1213      C1220   1.445       .  S
C1214      C1215   1.405       .  A
C1215      C1216   1.411       .  A
C1215      H1218   1.084       .  S
C1216      C1219   1.443       .  S
C1219      N1221   1.158       .  T
C1220      N1222   1.157       .  T
C1223      C1224   1.410       .  A
C1223      C1228   1.421       .  A
C1224      C1225   1.404       .  A
C1224      H1229   1.082   1_565  S
C1225      C1226   1.410       .  A
C1225      C1232   1.437   1_565  S
C1226      C1227   1.400       .  A
C1227      C1228   1.396       .  A
C1227      H1230   1.086       .  S
C1228      C1231   1.442       .  S
C1231      N1233   1.157       .  T
C1232      N1234   1.155       .  T
C1235      C1236   1.405       .  A
C1235      C1240   1.409       .  A
C1236      C1237   1.406       .  A
C1236      H1241   1.084       .  S
C1237      C1238   1.412       .  A
C1237      C1244   1.444       .  S
C1238      C1239   1.399       .  A
C1238      C1279   1.473   1_554  S
C1239      C1240   1.394       .  A
C1239      H1420   1.085   1_554  S
C1240      C1243   1.440       .  S
H1242      C1417   1.085       .  S
C1243      N1245   1.156   1_554  T
C1244      N1246   1.158       .  T
N1247      C1251   1.391       .  A
N1247      C1248   1.360       .  A
N1247      N1288   1.428       .  S
C1248      C1249   1.374       .  A
C1248      C1413   1.480       .  S
C1249      C1250   1.364       .  A
C1249      H1252   1.081       .  S
C1250      C1251   1.385       .  A
C1250      H1253   1.078       .  S
N1254      C1258   1.378       .  A
N1254      C1255   1.360       .  A
N1254      N1295   1.447       .  S
C1255      C1256   1.382   1_565  A
C1255      C1401   1.509       .  S
C1256      C1257   1.369       .  A
C1256      H1259   1.078       .  S
C1257      C1258   1.380   1_545  A
N1261      C1265   1.381       .  A
N1261      C1262   1.360       .  A
N1261      N1309   1.447       .  S
C1262      C1263   1.377       .  A
C1262      C1389   1.502       .  S
C1263      C1264   1.372       .  A
C1263      H1266   1.074       .  S
C1264      C1265   1.383       .  A
C1264      H1267   1.081       .  S
N1268      C1272   1.384   1_565  A
N1268      C1269   1.363   1_565  A
N1268      N1302   1.428       .  S
C1269      C1270   1.374       .  A
C1269      C1377   1.473   1_545  S
C1270      H1273   1.083       .  S
C1271      H1274   1.079       .  S
In1275     O1277   2.257       .  S
In1275     O1278   2.234       .  S
In1275     O1286   2.229       .  S
In1275     O1280   2.243       .  S
In1275     O1282   2.213       .  S
In1275     O1283   2.232       .  S
In1275     O1284   2.295       .  S
In1275     O1287   2.246       .  S
C1276      C1404   1.493       .  S
C1276      O1282   1.261       .  A
C1276      O1284   1.270       .  A
O1277      C1285   1.267       .  A
O1278      C1285   1.262       .  A
C1279      O1286   1.266       .  A
C1279      O1280   1.263       .  A
C1281      O1283   1.261       .  A
C1281      O1287   1.270       .  A
C1285      C1392   1.482       .  S
N1288      C1292   1.387       .  A
N1288      C1289   1.366       .  A
C1289      C1290   1.372       .  A
C1289      C1368   1.481       .  S
C1290      C1291   1.351       .  A
C1290      H1293   1.080       .  S
C1291      C1292   1.383       .  A
C1291      H1294   1.070       .  S
C1292      C1299   1.497       .  S
N1295      C1299   1.377       .  A
N1295      C1296   1.359       .  A
C1296      C1297   1.372       .  A
C1296      C1353   1.483       .  S
C1297      C1298   1.372       .  A
C1297      H1300   1.079       .  S
C1298      C1299   1.386       .  A
C1298      H1301   1.080       .  S
N1302      C1306   1.389       .  A
N1302      C1303   1.360       .  A
C1303      C1304   1.376       .  A
C1303      C1344   1.480       .  S
C1304      C1305   1.362       .  A
C1304      H1307   1.083       .  S
C1305      C1306   1.384       .  A
C1305      H1308   1.074       .  S
C1306      C1313   1.505       .  S
N1309      C1313   1.382       .  A
N1309      C1310   1.371       .  A
C1310      C1311   1.377       .  A
C1310      C1332   1.506       .  S
C1311      C1312   1.366       .  A
C1311      H1314   1.079       .  S
C1312      C1313   1.384       .  A
C1312      H1315   1.080       .  S
In1316     O1323   2.235       .  S
In1316     O1325   2.239       .  S
In1316     O1328   2.241       .  S
C1317      O1323   1.263       .  A
C1317      O1325   1.270       .  A
O1318      C1326   1.269   1_655  A
C1320      C1356   1.473       .  S
C1320      O1327   1.270       .  A
C1320      O1321   1.263   1_565  A
C1322      O1328   1.270   1_455  A
C1329      C1334   1.413       .  A
C1330      H1335   1.085       .  S
C1331      C1332   1.420       .  A
C1332      C1333   1.407       .  A
C1333      C1334   1.405       .  A
C1333      H1336   1.085       .  S
C1334      C1337   1.444       .  S
C1337      N1339   1.157       .  T
C1338      N1340   1.157       .  T
C1341      C1342   1.402       .  A
C1341      C1346   1.413   1_565  A
C1342      C1343   1.402       .  A
C1343      C1344   1.411       .  A
C1343      C1350   1.444       .  S
C1344      C1345   1.403       .  A
C1345      C1346   1.404   1_565  A
C1345      H1348   1.082       .  S
C1349      N1351   1.157       .  T
C1350      N1352   1.157       .  T
C1353      C1354   1.399       .  A
C1353      C1358   1.417       .  A
C1354      C1355   1.402       .  A
C1354      H1359   1.083       .  S
C1355      C1356   1.411       .  A
C1355      C1362   1.440       .  S
C1356      C1357   1.397       .  A
C1357      C1358   1.400       .  A
C1357      H1360   1.085       .  S
C1358      C1361   1.442       .  S
C1361      N1363   1.157       .  T
C1362      N1364   1.156       .  T
C1365      C1366   1.399       .  A
C1365      C1370   1.419       .  A
C1366      C1367   1.394       .  A
C1367      C1368   1.418       .  A
C1367      C1374   1.447       .  S
C1368      C1369   1.401       .  A
C1369      C1370   1.406       .  A
C1369      H1372   1.084       .  S
C1370      C1373   1.443       .  S
C1373      N1375   1.157       .  T
C1374      N1376   1.157       .  T
C1377      C1378   1.404       .  A
C1377      C1382   1.411       .  A
C1378      C1379   1.398       .  A
C1378      H1383   1.085   1_565  S
C1379      C1380   1.407       .  A
C1380      C1381   1.403       .  A
C1381      C1382   1.402       .  A
C1381      H1384   1.085       .  S
C1382      C1385   1.443       .  S
C1385      N1387   1.157       .  T
C1386      N1388   1.156       .  T
C1389      C1390   1.410       .  A
C1389      C1394   1.418       .  A
C1390      C1391   1.399       .  A
C1390      H1395   1.084       .  S
C1391      C1392   1.409       .  A
C1391      C1398   1.445       .  S
C1392      C1393   1.403       .  A
C1393      C1394   1.406       .  A
C1393      H1396   1.084       .  S
C1394      C1397   1.442       .  S
C1397      N1399   1.157       .  T
C1398      N1400   1.157       .  T
C1401      C1402   1.410       .  A
C1401      C1406   1.421       .  A
C1402      C1403   1.406       .  A
C1402      H1407   1.082   1_565  S
C1403      C1404   1.412       .  A
C1403      C1410   1.435   1_565  S
C1404      C1405   1.402       .  A
C1405      C1406   1.399       .  A
C1405      H1408   1.086       .  S
C1406      C1409   1.442       .  S
C1409      N1411   1.157       .  T
C1410      N1412   1.155       .  T
C1413      C1414   1.402       .  A
C1413      C1418   1.410       .  A
C1414      C1415   1.405       .  A
C1414      H1419   1.085       .  S
C1415      C1416   1.414       .  A
C1415      C1422   1.443       .  S
C1416      C1417   1.401       .  A
C1417      C1418   1.400       .  A
C1418      C1421   1.442       .  S
C1421      N1423   1.156       .  T
C1422      N1424   1.157       .  T
