geometry optimzed in LAMMPS
_audit_creation_date              2020-11-30 
_audit_creation_method            'lammps2cif' 
_symmetry_space_group_name_H-M    'P1' 
_symmetry_Int_Tables_number       1 
_symmetry_cell_setting            triclinic 
loop_ 
_symmetry_equiv_pos_as_xyz 
  x,y,z 
_cell_length_a                    42.24717614 
_cell_length_b                    42.20513901158698 
_cell_length_c                    42.7196894558961 
_cell_angle_alpha                 90.19103995720184 
_cell_angle_beta                  90.24197997735475 
_cell_angle_gamma                 90.08466788588404 
loop_ 
_atom_site_label 
_atom_site_type_symbol 
_atom_site_fract_x 
_atom_site_fract_y 
_atom_site_fract_z 
_atom_site_charge 
O1          O  0.51026690  0.47483759  0.41944433    -0.77900
C2          C  0.42628973  0.52505595  0.43596482     0.83200
O3          O  0.54981323  0.56790514  0.49051008    -0.79000
O4          O  0.45166951  0.54073568  0.54128684    -0.80500
O5          O  0.47241808  0.42897755  0.51363849    -0.80300
O6          O  0.52387525  0.43582407  0.45135047    -0.78900
Zn7        Zn  0.49837650  0.51300067  0.44689419     1.55700
O8          O  0.43259879  0.46346854  0.51794577    -0.80300
Cd9        Cd  0.51060365  0.45705419  0.49574924     1.59700
Cd10       Cd  0.52549248  0.53447274  0.51959706     1.59600
O11         O  0.55119676  0.45998403  0.52672278    -0.80300
O12         O  0.49680381  0.50313275  0.49157772    -1.90800
Cd13       Cd  0.45073675  0.50723881  0.50313764     1.59900
O14         O  0.56236504  0.50912488  0.54348428    -0.80300
O15         O  0.41979012  0.51943125  0.46471147    -0.78900
C16         C  0.54995037  0.56889653  0.46057152     0.83600
C17         C  0.52112625  0.44693220  0.42351067     0.83300
O18         O  0.45515823  0.52469643  0.42703837    -0.77900
C19         C  0.44355199  0.43538760  0.52069020     0.84100
O20         O  0.53238659  0.54935661  0.44491200    -0.78000
C21         C  0.56897628  0.47954155  0.54243867     0.84200
C22         C  0.46877594  0.55941250  0.55861858     0.84500
O23         O  0.49872829  0.56072337  0.55419775    -0.80400
O24         O  0.45523975  0.32320778  0.21116684    -0.77900
C25         C  0.52294968  0.32997235  0.29038562     0.83200
O26         O  0.55476013  0.25669396  0.17526033    -0.79000
O27         O  0.54238793  0.21979967  0.28501624    -0.80500
O28         O  0.43051905  0.23158920  0.27354772    -0.80300
O29         O  0.42222919  0.28237408  0.21479783    -0.78900
Zn30       Zn  0.49990015  0.30411509  0.22395952     1.55700
O31         O  0.46614125  0.24026350  0.31121915    -0.80300
Cd32       Cd  0.45200547  0.24477644  0.23015353     1.59700
Cd33       Cd  0.52786677  0.23089157  0.20854948     1.59600
O34         O  0.45533431  0.20598801  0.19619657    -0.80300
O35         O  0.49714962  0.25943521  0.23680504    -1.90800
Cd36       Cd  0.50705170  0.25691268  0.28414208     1.59900
O37         O  0.50446585  0.19601617  0.18034749    -0.80300
O38         O  0.52243885  0.30262672  0.30369715    -0.78900
C39         C  0.55134224  0.28594029  0.16866508     0.83600
C40         C  0.42710542  0.31178229  0.20908275     0.83300
O41         O  0.51431710  0.33225766  0.26165875    -0.77900
C42         C  0.43836516  0.23084240  0.30265803     0.84100
O43         O  0.53290708  0.30354675  0.18571968    -0.78000
C44         C  0.47503530  0.18940937  0.17947072     0.84200
C45         C  0.55761732  0.20026440  0.26697304     0.84500
O46         O  0.55709139  0.20285067  0.23721372    -0.80400
C47         C  0.77223232  0.72580319  0.73839786     0.80800
N48         N  0.75121775  0.72867054  0.76238213    -0.77500
C49         C  0.73547581  0.75643248  0.76655915     0.83300
N50         N  0.74170951  0.78117691  0.74755974    -0.77400
C51         C  0.76269317  0.77860342  0.72406463     0.83400
N52         N  0.77780456  0.75084987  0.71956322    -0.79100
C53         C  0.72461655  0.98023549  0.98152126     0.80800
N54         N  0.73795426  0.98404204  0.01034590    -0.77500
C55         C  0.76139346  0.00563715  0.01503229     0.83300
N56         N  0.77187669  0.02282853  0.99049834    -0.77400
C57         C  0.75871985  0.01940696  0.96177306     0.83400
N58         N  0.73532879  0.99799812  0.95731260    -0.79100
C59         C  0.93079268  0.81625594  0.98044246     0.80800
N60         N  0.92031380  0.79092223  0.96400986    -0.77500
C61         C  0.93386693  0.78261740  0.93668568     0.83300
N62         N  0.95836651  0.79993872  0.92578675    -0.77400
C63         C  0.96928141  0.82536685  0.94195654     0.83400
N64         N  0.95569724  0.83333442  0.96956927    -0.79100
C65         C  0.98122076  0.00443620  0.70569500     0.80800
N66         N  0.00582959  0.98386380  0.70773400    -0.77500
C67         C  0.02920976  0.98877049  0.72914646     0.83300
N68         N  0.02705757  0.01331893  0.74970004    -0.77400
C69         C  0.00255697  0.03384339  0.74759996     0.83400
N70         N  0.97993859  0.02910859  0.72571668    -0.79100
N71         N  0.10649096  0.88602223  0.84678108    -0.36000
N72         N  0.14489720  0.85826874  0.89905474    -0.56600
N73         N  0.20091880  0.86207778  0.86057937    -0.36000
N74         N  0.16037539  0.89433308  0.81188469    -0.56600
C75         C  0.08922211  0.89176547  0.87232979     0.27600
C76         C  0.09665761  0.90619327  0.82438154     0.27600
C77         C  0.21276086  0.85418645  0.88936401     0.27600
C78         C  0.22096538  0.88262553  0.84561687     0.27600
C79         C  0.11423929  0.85117139  0.90511874     0.36200
C80         C  0.16246389  0.83398097  0.91048384     0.36200
C81         C  0.13863320  0.89352154  0.78893433     0.36200
C82         C  0.18776344  0.88550759  0.79926292     0.36200
C83         C  0.06795524  0.91612678  0.86641617    -0.21300
C84         C  0.07276395  0.92540207  0.83582981    -0.21300
C85         C  0.24185952  0.86937549  0.89248101    -0.21300
C86         C  0.24667832  0.88767001  0.86535999    -0.21300
C87         C  0.11207504  0.82228807  0.92006311    -0.22300
C88         C  0.14241311  0.81115382  0.92302430    -0.22300
C89         C  0.15193696  0.88412296  0.76104204    -0.22300
C90         C  0.18349718  0.87874824  0.76770367    -0.22300
C91         C  0.08827864  0.87086737  0.89764682    -0.17700
C92         C  0.10836914  0.90544638  0.79369698    -0.17700
C93         C  0.21587213  0.89444465  0.81398905    -0.17700
C94         C  0.19625873  0.83438694  0.91204227    -0.17700
H95         H  0.04993462  0.92509291  0.88203753     0.15200
H96         H  0.05975760  0.94349352  0.82333050     0.15200
H97         H  0.25749259  0.86840955  0.91257211     0.15200
H98         H  0.26703922  0.90242712  0.86056948     0.15200
H99         H  0.09080556  0.81012208  0.92740392     0.13500
H100        H  0.14839090  0.78841810  0.93282791     0.13500
H101        H  0.14024056  0.88215449  0.73854832     0.13500
H102        H  0.20162223  0.87203183  0.75116847     0.13500
H103        H  0.12212808  0.86710648  0.84397696     0.26800
H104        H  0.17983484  0.85314560  0.85128704     0.26800
N105        N  0.85980985  0.90283982  0.11053345    -0.36000
N106        N  0.88205644  0.85156029  0.15360741    -0.56600
N107        N  0.87744052  0.89472336  0.20541242    -0.36000
N108        N  0.85161465  0.94256728  0.16055803    -0.56600
C109        C  0.85481939  0.87622732  0.09409420     0.27600
C110        C  0.84133527  0.92550213  0.09772843     0.27600
C111        C  0.88542463  0.86708149  0.22014793     0.27600
C112        C  0.85675849  0.91189111  0.22343691     0.27600
C113        C  0.88761248  0.83905663  0.12498765     0.36200
C114        C  0.90168044  0.83605978  0.17346144     0.36200
C115        C  0.85013418  0.96483013  0.13830308     0.36200
C116        C  0.85446918  0.95748558  0.18788867     0.36200
C117        C  0.83347650  0.88185870  0.07000247    -0.21300
C118        C  0.82466223  0.91312021  0.07246681    -0.21300
C119        C  0.87041449  0.86713296  0.24900764    -0.21300
C120        C  0.85180088  0.89472787  0.25070332    -0.21300
C121        C  0.90969884  0.81495786  0.12674540    -0.22300
C122        C  0.91881560  0.81318372  0.15731009    -0.22300
C123        C  0.85230455  0.99478220  0.15129928    -0.22300
C124        C  0.85533078  0.99008908  0.18307001    -0.22300
C125        C  0.87372738  0.84933788  0.09685698    -0.17700
C126        C  0.84041428  0.95719911  0.10803560    -0.17700
C127        C  0.84359712  0.94268549  0.21492090    -0.17700
C128        C  0.90362169  0.84140633  0.20614153    -0.17700
H129        H  0.82579966  0.86538231  0.05205036     0.15200
H130        H  0.80841978  0.92540145  0.05707400     0.15200
H131        H  0.87127571  0.84844876  0.26627069     0.15200
H132        H  0.83671802  0.90144204  0.27001024     0.15200
H133        H  0.91866946  0.80043077  0.10783693     0.13500
H134        H  0.93628081  0.79684996  0.16636131     0.13500
H135        H  0.84963701  0.01729186  0.13951415     0.13500
H136        H  0.85474169  0.00834086  0.20089892     0.13500
H137        H  0.87701169  0.90561406  0.12787306     0.26800
H138        H  0.88608078  0.90154577  0.18366052     0.26800
N139        N  0.82479534  0.93134897  0.63925001    -0.36000
N140        N  0.80506415  0.88066196  0.59441159    -0.56600
N141        N  0.84529212  0.90109038  0.54370023    -0.36000
N142        N  0.86941974  0.94718145  0.59015949    -0.56600
C143        C  0.81459581  0.90804987  0.65787950     0.27600
C144        C  0.84834317  0.94613042  0.65472019     0.27600
C145        C  0.83578112  0.87198578  0.53295955     0.27600
C146        C  0.87410322  0.90921728  0.53135961     0.27600
C147        C  0.78337304  0.88137348  0.61752133     0.36200
C148        C  0.79079010  0.86644038  0.56979078     0.36200
C149        C  0.86721240  0.97278440  0.60892180     0.36200
C150        C  0.87794592  0.95815401  0.56199223     0.36200
C151        C  0.83065305  0.90880442  0.68629322    -0.21300
C152        C  0.85216232  0.93323415  0.68431048    -0.21300
C153        C  0.85867932  0.86174150  0.51194959    -0.21300
C154        C  0.88277181  0.88490446  0.51113974    -0.21300
C155        C  0.75534775  0.86754853  0.60787920    -0.22300
C156        C  0.75973671  0.85879058  0.57736010    -0.22300
C157        C  0.87453832  0.00012165  0.59297552    -0.22300
C158        C  0.88061640  0.99086219  0.56273417    -0.22300
C159        C  0.79169422  0.88602877  0.64884933    -0.17700
C160        C  0.86704196  0.96969855  0.64127794    -0.17700
C161        C  0.89112316  0.93839367  0.53907212    -0.17700
C162        C  0.80715225  0.85546874  0.54300198    -0.17700
H163        H  0.82778915  0.89293245  0.70593239     0.15200
H164        H  0.86927876  0.93996363  0.70205518     0.15200
H165        H  0.85852150  0.83959384  0.49912129     0.15200
H166        H  0.90419237  0.88376905  0.49739733     0.15200
H167        H  0.73459047  0.86289946  0.62192972     0.13500
H168        H  0.74260037  0.84650525  0.56294047     0.13500
H169        H  0.87657313  0.02373651  0.60266986     0.13500
H170        H  0.88812921  0.00580504  0.54364772     0.13500
H171        H  0.81654745  0.93638481  0.61672681     0.26800
H172        H  0.83223366  0.91528907  0.55883286     0.26800
N173        N  0.88772602  0.64484076  0.82711369    -0.36000
N174        N  0.86327043  0.58968754  0.79927090    -0.56600
N175        N  0.88056368  0.54892907  0.85312093    -0.36000
N176        N  0.90109311  0.60638274  0.88401550    -0.56600
C177        C  0.87004398  0.65672844  0.80348491     0.27600
C178        C  0.88766822  0.66673488  0.84994294     0.27600
C179        C  0.85684430  0.53171737  0.83900639     0.27600
C180        C  0.88632212  0.53778914  0.88264054     0.27600
C181        C  0.86691119  0.60788648  0.77379860     0.36200
C182        C  0.85969413  0.56002827  0.78886231     0.36200
C183        C  0.91129823  0.63539930  0.89321915     0.36200
C184        C  0.91276040  0.58571144  0.90531738     0.36200
C185        C  0.85920936  0.68675153  0.81132401    -0.21300
C186        C  0.87068231  0.69319594  0.84063284    -0.21300
C187        C  0.84743558  0.50866186  0.86017359    -0.21300
C188        C  0.86644448  0.51195167  0.88714870    -0.21300
C189        C  0.86565148  0.58993917  0.74674500    -0.22300
C190        C  0.86147369  0.55923641  0.75636975    -0.22300
C191        C  0.92857361  0.63335614  0.92068209    -0.22300
C192        C  0.92957735  0.60202568  0.92831545    -0.22300
C193        C  0.86314320  0.64052179  0.77544563    -0.17700
C194        C  0.90374316  0.66417638  0.87844700    -0.17700
C195        C  0.90742902  0.55248977  0.90557899    -0.17700
C196        C  0.84510167  0.53699175  0.80728413    -0.17700
H197        H  0.84418084  0.70231435  0.79780922     0.15200
H198        H  0.86648007  0.71468373  0.85387841     0.15200
H199        H  0.82905892  0.49112763  0.85656745     0.15200
H200        H  0.86457265  0.49799207  0.90825997     0.15200
H201        H  0.86558082  0.59838732  0.72284613     0.13500
H202        H  0.85733030  0.53896041  0.74132771     0.13500
H203        H  0.93923183  0.65248360  0.93399490     0.13500
H204        H  0.94079004  0.59254520  0.94907621     0.13500
H205        H  0.89998977  0.62343732  0.82750263     0.26800
H206        H  0.89291460  0.56749924  0.84287166     0.26800
N207        N  0.64795720  0.82421677  0.91482423    -0.36000
N208        N  0.60025404  0.80419399  0.86854793    -0.56600
N209        N  0.55160370  0.84825965  0.89080890    -0.36000
N210        N  0.60014191  0.87128292  0.93389413    -0.56600
C211        C  0.66624253  0.81177668  0.89215098     0.27600
C212        C  0.66526433  0.84688359  0.92920826     0.27600
C213        C  0.53830697  0.83834156  0.86328414     0.27600
C214        C  0.53896222  0.87678123  0.89978943     0.27600
C215        C  0.62372992  0.78257651  0.86519044     0.36200
C216        C  0.57487037  0.79230357  0.85305828     0.36200
C217        C  0.62103719  0.86940050  0.95776013     0.36200
C218        C  0.57296705  0.88195461  0.94641734     0.36200
C219        C  0.69608253  0.82548783  0.89304811    -0.21300
C220        C  0.69548888  0.84776608  0.91665743    -0.21300
C221        C  0.51576718  0.86075199  0.85482381    -0.21300
C222        C  0.51641763  0.88498805  0.87748846    -0.21300
C223        C  0.61351643  0.75698193  0.84777167    -0.22300
C224        C  0.58298170  0.76311007  0.83976275    -0.22300
C225        C  0.60738672  0.87926758  0.98543196    -0.07900
C226        C  0.57655754  0.88629158  0.97848251    -0.22300
C227        C  0.65592521  0.78917007  0.87024811    -0.17700
C228        C  0.65352651  0.86723958  0.95256157    -0.17700
C229        C  0.54779563  0.89389560  0.92819159    -0.17700
C230        C  0.54622655  0.80915986  0.84690520    -0.17700
H231        H  0.71588024  0.82057879  0.87779002     0.15200
H232        H  0.71479289  0.86332125  0.92327444     0.15200
H233        H  0.50072563  0.86001072  0.83426775     0.15200
H234        H  0.50184976  0.90604722  0.87751265     0.15200
H235        H  0.62749758  0.73714987  0.83958122     0.13500
H236        H  0.56963986  0.74819564  0.82394549     0.13500
H237        H  0.61869474  0.88224111  0.00796320     0.13500
H238        H  0.55928920  0.89549526  0.99479556     0.13500
H239        H  0.62463006  0.81800282  0.91989261     0.26800
H240        H  0.56806509  0.83529107  0.90358444     0.26800
N241        N  0.88367876  0.10394468  0.86297359    -0.36000
N242        N  0.83612307  0.15047905  0.88454736    -0.56600
N243        N  0.87935589  0.20312260  0.87223759    -0.36000
N244        N  0.92292945  0.15572388  0.84739275    -0.56600
C245        C  0.85696868  0.08670506  0.86131667     0.27600
C246        C  0.90528121  0.08982933  0.84445909     0.27600
C247        C  0.85246538  0.21854962  0.88105413     0.27600
C248        C  0.89606991  0.22074926  0.85097926     0.27600
C249        C  0.82540216  0.12210823  0.89489183     0.36200
C250        C  0.82583248  0.17226033  0.90556187     0.36200
C251        C  0.94418618  0.13217621  0.84869929     0.36200
C252        C  0.93952698  0.18275872  0.84812200     0.36200
C253        C  0.86166507  0.06058919  0.84208712    -0.21300
C254        C  0.89236503  0.06270805  0.83114594    -0.21300
C255        C  0.85236346  0.24760738  0.86582345    -0.21300
C256        C  0.87928599  0.24867040  0.84641261    -0.21300
C257        C  0.80838587  0.12591116  0.92226921    -0.22300
C258        C  0.80879509  0.15742369  0.92909686    -0.22300
C259        C  0.97458444  0.14412151  0.84993656    -0.22300
C260        C  0.97170915  0.17643684  0.85008645    -0.22300
C261        C  0.83020118  0.09264444  0.87979371    -0.17700
C262        C  0.93630646  0.10121290  0.84037502    -0.17700
C263        C  0.92636058  0.21117027  0.83761946    -0.17700
C264        C  0.82905153  0.20556345  0.90239231    -0.17700
H265        H  0.84490506  0.04184425  0.83694231     0.15200
H266        H  0.90392842  0.04606977  0.81563523     0.15200
H267        H  0.83438500  0.26573555  0.86771426     0.15200
H268        H  0.88596953  0.26805972  0.83130402     0.15200
H269        H  0.79724791  0.10784996  0.93637770     0.13500
H270        H  0.79745749  0.16797241  0.94922382     0.13500
H271        H  0.99624293  0.13075364  0.84818489     0.13500
H272        H  0.99093892  0.19334116  0.84865100     0.13500
H273        H  0.88742757  0.12348392  0.87747877     0.26800
H274        H  0.88620560  0.18138180  0.88143483     0.26800
O275        O  0.26935521  0.42926190  0.22133189    -0.77900
C276        C  0.21076452  0.43177897  0.30590771     0.83200
O277        O  0.18049155  0.50270837  0.18134238    -0.79000
O278        O  0.19295916  0.54498909  0.29179625    -0.80500
O279        O  0.30713813  0.51913375  0.27938832    -0.80300
O280        O  0.30823139  0.46461676  0.22100508    -0.78900
Zn281      Zn  0.22784170  0.45272954  0.23606067     1.55700
O282        O  0.27083554  0.51903926  0.31712500    -0.80300
Cd283      Cd  0.28281662  0.50601587  0.23707369     1.59700
Cd284      Cd  0.20718733  0.52816530  0.21628972     1.59600
O285        O  0.28319589  0.54525251  0.20407419    -0.80300
O286        O  0.23579704  0.49794545  0.24565300    -1.90800
Cd287      Cd  0.22716653  0.50498863  0.29271932     1.59900
O288        O  0.23480738  0.56184922  0.19070979    -0.80300
O289        O  0.21320534  0.46047861  0.31631547    -0.78900
C290        C  0.17960677  0.47259939  0.17803300     0.83600
C291        C  0.29862164  0.43604594  0.21671392     0.83300
O292        O  0.21453739  0.42652489  0.27642615    -0.77900
C293        C  0.29976487  0.52301864  0.30831161     0.84100
O294        O  0.19471151  0.45480567  0.19788646    -0.78000
C295        C  0.26484940  0.56510681  0.18953094     0.84200
C296        C  0.17698223  0.56342023  0.27292185     0.84500
O297        O  0.17717611  0.55852730  0.24332005    -0.80400
O298        O  0.28259559  0.18155396  0.53325272    -0.77900
C299        C  0.20003372  0.18100103  0.47598817     0.83200
O300        O  0.31710501  0.25613233  0.44016221    -0.79000
O301        O  0.21064925  0.28656646  0.44957997    -0.80500
O302        O  0.22098728  0.27212107  0.56875611    -0.80300
O303        O  0.27838716  0.21715844  0.57135270    -0.78900
Zn304      Zn  0.26949942  0.20538013  0.49211550     1.55700
O305        O  0.18508066  0.27149686  0.53032625    -0.80300
Cd306      Cd  0.26391571  0.25871159  0.54591862     1.59700
Cd307      Cd  0.28568210  0.28032504  0.47116855     1.59600
O308        O  0.29706308  0.29799618  0.54639404    -0.80300
O309        O  0.25727681  0.24964923  0.49950234    -1.90800
Cd310      Cd  0.20993821  0.25406314  0.48968542     1.59900
O311        O  0.31153616  0.31348015  0.49839524    -0.80300
O312        O  0.18687147  0.20825231  0.47939459    -0.78900
C313        C  0.31927180  0.22618961  0.43680259     0.83600
C314        C  0.28396536  0.18860560  0.56246805     0.83300
O315        O  0.23023600  0.17875568  0.47879062    -0.77900
C316        C  0.19243188  0.27610624  0.55929974     0.84100
O317        O  0.30415548  0.20757223  0.45579831    -0.78000
C318        C  0.31241076  0.31706595  0.52809247     0.84200
C319        C  0.22909813  0.30390240  0.43214351     0.84500
O320        O  0.25848594  0.30658833  0.43854125    -0.80400
O321        O  0.51725629  0.76489933  0.82720185    -0.77900
C322        C  0.43141238  0.70972087  0.82189272     0.83200
O323        O  0.55758442  0.68025647  0.75537119    -0.79000
O324        O  0.45064098  0.68952637  0.71575964    -0.80500
O325        O  0.46306008  0.80681442  0.73989288    -0.80300
O326        O  0.52410699  0.80480461  0.79407174    -0.78900
Zn327      Zn  0.50200592  0.72507607  0.80328347     1.55700
O328        O  0.42629452  0.76869947  0.73800306    -0.80300
Cd329      Cd  0.50538689  0.78241808  0.75256065     1.59700
Cd330      Cd  0.52608805  0.70897660  0.72852415     1.59600
O331        O  0.53753860  0.78457535  0.71330606    -0.80300
O332        O  0.49587446  0.73547139  0.75891172    -1.90800
Cd333      Cd  0.44911919  0.72626594  0.75177347     1.59900
O334        O  0.55253715  0.73724894  0.69546492    -0.80300
O335        O  0.42232233  0.71266195  0.79330233    -0.78900
C336        C  0.55715784  0.67448656  0.78478344     0.83600
C337        C  0.52609121  0.79341106  0.82181309     0.83300
O338        O  0.46088406  0.71312202  0.82837179    -0.77900
C339        C  0.43464408  0.79766713  0.73412230     0.84100
O340        O  0.53686258  0.68873313  0.80251052    -0.78000
C341        C  0.55280376  0.76748830  0.69311400     0.84200
C342        C  0.46988817  0.67212020  0.69933732     0.84500
O343        O  0.49976824  0.67652061  0.70068073    -0.80400
O344        O  0.17024973  0.72904762  0.98686636    -0.77900
C345        C  0.17918442  0.78984505  0.06785234     0.83200
O346        O  0.24215852  0.81105858  0.93983120    -0.79000
O347        O  0.28618012  0.80754343  0.04926707    -0.80500
O348        O  0.25952636  0.68728578  0.04082851    -0.80300
O349        O  0.20446170  0.68958530  0.97981574    -0.78900
Zn350      Zn  0.19534865  0.76976488  0.99854449     1.55700
O351        O  0.26254705  0.72714427  0.07526957    -0.80300
Cd352      Cd  0.24743628  0.71164139  0.99774205     1.59700
Cd353      Cd  0.26997721  0.78603603  0.97433389     1.59600
O354        O  0.28781253  0.70927932  0.96579090    -0.80300
O355        O  0.24068349  0.75942371  0.00525027    -1.90800
Cd356      Cd  0.24983847  0.76994911  0.05110257     1.59900
O357        O  0.30417097  0.75717483  0.95027445    -0.80300
O358        O  0.20806303  0.78550627  0.07645155    -0.78900
C359        C  0.21209892  0.81527705  0.93882992     0.83600
C360        C  0.17601574  0.70042638  0.97851487     0.83300
O361        O  0.17157980  0.78588726  0.03898851    -0.77900
C362        C  0.26505906  0.69738814  0.06876131     0.84100
O363        O  0.19452471  0.80233971  0.96005914    -0.78000
C364        C  0.30758728  0.72702858  0.95046367     0.84200
C365        C  0.30040448  0.82571141  0.02908662     0.84500
O366        O  0.29693205  0.82083712  0.99964794    -0.80400
O367        O  0.01239630  0.48263284  0.91818692    -0.77900
C368        C  0.92800824  0.53538747  0.92979960     0.83200
O369        O  0.04870639  0.57044121  0.99429810    -0.79000
O370        O  0.94741265  0.54726748  0.04099317    -0.80500
O371        O  0.96282763  0.43410780  0.00472157    -0.80300
O372        O  0.01485952  0.43876867  0.94602106    -0.78900
Zn373      Zn  0.99927036  0.52048965  0.94535064     1.55700
O374        O  0.92452032  0.46966406  0.01259456    -0.80300
Cd375      Cd  0.00323449  0.46034103  0.99078355     1.59700
Cd376      Cd  0.02333226  0.53444264  0.01887385     1.59600
O377        O  0.04162231  0.45752261  0.02479641    -0.80300
O378        O  0.99270844  0.50779451  0.98897719    -1.90800
Cd379      Cd  0.94574028  0.51483251  0.99971577     1.59900
O380        O  0.05696866  0.50487944  0.04299688    -0.80300
O381        O  0.91875826  0.53053563  0.95816670    -0.78900
C382        C  0.04815736  0.57658301  0.96501119     0.83600
C383        C  0.01695079  0.45269760  0.91951624     0.83300
O384        O  0.95742892  0.53294067  0.92322724    -0.77900
C385        C  0.93436244  0.44075567  0.01273259     0.84100
O386        O  0.03198555  0.55878255  0.94602593    -0.78000
C387        C  0.06028718  0.47470407  0.04218547     0.84200
C388        C  0.96791754  0.56102697  0.05960858     0.84500
O389        O  0.99759959  0.55904432  0.05417136    -0.80400
O390        O  0.32556303  0.01432624  0.77704484    -0.77900
C391        C  0.32252452  0.93302465  0.71374550     0.83200
O392        O  0.25395372  0.05448351  0.68496789    -0.79000
O393        O  0.21567486  0.94877837  0.69262381    -0.80500
O394        O  0.23477788  0.94952111  0.80953172    -0.80300
O395        O  0.28999078  0.00904878  0.81483542    -0.78900
Zn396      Zn  0.30249547  0.00157710  0.73536815     1.55700
O397        O  0.23672050  0.91875998  0.76734324    -0.80300
Cd398      Cd  0.24809684  0.99480951  0.78875061     1.59700
Cd399      Cd  0.22678417  0.02271546  0.71425801     1.59600
O400        O  0.21050788  0.03024019  0.78932458    -0.80300
O401        O  0.25718772  0.99226462  0.74178355    -1.90800
Cd402      Cd  0.25135346  0.94681884  0.72866110     1.59900
O403        O  0.19734130  0.05176846  0.74336957    -0.80300
O404        O  0.29388692  0.92321536  0.71521223    -0.78900
C405        C  0.28417080  0.05736983  0.68509942     0.83600
C406        C  0.31838678  0.01562715  0.80617454     0.83300
O407        O  0.32882381  0.96222477  0.71953338    -0.77900
C408        C  0.23185103  0.92200616  0.79684986     0.84100
O409        O  0.30083999  0.03915170  0.70301421    -0.78000
C410        C  0.19374552  0.05021553  0.77303709     0.84200
C411        C  0.19391294  0.96617855  0.68011362     0.84500
O412        O  0.19365769  0.99603749  0.68565472    -0.80400
O413        O  0.66427751  0.72860344  0.47810040    -0.77900
C414        C  0.67672458  0.78246639  0.56491248     0.83200
O415        O  0.73363469  0.82008724  0.43832084    -0.79000
O416        O  0.78040333  0.80414358  0.54608740    -0.80500
O417        O  0.76080338  0.68597392  0.52313051    -0.80300
O418        O  0.70088146  0.69192894  0.46853274    -0.78900
Zn419      Zn  0.68896919  0.76992545  0.49228093     1.55700
O420        O  0.76353713  0.71934911  0.56359316    -0.80300
Cd421      Cd  0.74398849  0.71493407  0.48398965     1.59700
Cd422      Cd  0.76142239  0.79286176  0.46996491     1.59600
O423        O  0.78062537  0.72004357  0.44774113    -0.80300
O424        O  0.73491064  0.76054184  0.49771767    -1.90800
Cd425      Cd  0.74666690  0.76430978  0.54441245     1.59900
O426        O  0.79545713  0.77062884  0.44147379    -0.80300
O427        O  0.70547802  0.77585893  0.57238999    -0.78900
C428        C  0.70356970  0.82244202  0.43658327     0.83600
C429        C  0.67166387  0.70054326  0.46890210     0.83300
O430        O  0.66819622  0.78211218  0.53590522    -0.77900
C431        C  0.76692263  0.69113431  0.55234143     0.84100
O432        O  0.68623617  0.80640313  0.45603551    -0.78000
C433        C  0.79930664  0.74130634  0.43553393     0.84200
C434        C  0.79220999  0.82589555  0.52795505     0.84500
O435        O  0.78720659  0.82522191  0.49841898    -0.80400
O436        O  0.01184521  0.78784388  0.31835487    -0.77900
C437        C  0.92563716  0.72996671  0.30903755     0.83200
O438        O  0.05264303  0.70066088  0.24663513    -0.79000
O439        O  0.94477705  0.70500308  0.20421210    -0.80500
O440        O  0.95376326  0.82717783  0.22993302    -0.80300
O441        O  0.01289306  0.82727816  0.28412917    -0.78900
Zn442      Zn  0.99743728  0.74650338  0.29392450     1.55700
O443        O  0.91842478  0.78832461  0.22348957    -0.80300
Cd444      Cd  0.99666254  0.80266627  0.24226984     1.59700
Cd445      Cd  0.01910250  0.72708641  0.22039776     1.59600
O446        O  0.02952687  0.80307062  0.20322673    -0.80300
O447        O  0.98894129  0.75517957  0.24900436    -1.90800
Cd448      Cd  0.94254219  0.74525246  0.23823431     1.59900
O449        O  0.04442995  0.75447514  0.18795366    -0.80300
O450        O  0.91672389  0.73255832  0.28031612    -0.78900
C451        C  0.05515774  0.69741811  0.27624639     0.83600
C452        C  0.01677342  0.81724839  0.31229876     0.83300
O453        O  0.95496760  0.73389391  0.31635763    -0.77900
C454        C  0.92555526  0.81811788  0.22303653     0.84100
O455        O  0.03534411  0.71165839  0.29482371    -0.78000
C456        C  0.04485713  0.78442523  0.18434626     0.84200
C457        C  0.96558937  0.68721562  0.18997233     0.84500
O458        O  0.99507389  0.69303768  0.19278541    -0.80400
O459        O  0.58032030  0.01902819  0.97737319    -0.77900
C460        C  0.56306862  0.96727238  0.06206273     0.83200
O461        O  0.50429647  0.93142417  0.93860920    -0.79000
O462        O  0.45350932  0.96074880  0.03681449    -0.80500
O463        O  0.49186066  0.07227115  0.01919648    -0.80300
O464        O  0.55313547  0.06268732  0.96827488    -0.78900
Zn465      Zn  0.55203037  0.98161763  0.99021696     1.55700
O466        O  0.48359610  0.03817782  0.05821514    -0.80300
Cd467      Cd  0.50699603  0.04323099  0.98045420     1.59700
Cd468      Cd  0.47894127  0.96829406  0.96252863     1.59600
O469        O  0.47270540  0.04393583  0.94211699    -0.80300
O470        O  0.50813617  0.99610441  0.99316426    -1.90800
Cd471      Cd  0.49550666  0.99168362  0.03935839     1.59900
O472        O  0.45318458  0.99653493  0.92929709    -0.80300
O473        O  0.53435280  0.97454697  0.06917725    -0.78900
C474        C  0.53373296  0.92484369  0.94124514     0.83600
C475        C  0.57981374  0.04824215  0.96952779     0.83300
O476        O  0.57168237  0.96835081  0.03334858    -0.77900
C477        C  0.48369376  0.06678755  0.04766776     0.84100
O478        O  0.55191330  0.94274353  0.95829611    -0.78000
C479        C  0.45363123  0.02657558  0.92533933     0.84200
C480        C  0.43550659  0.94588221  0.01666812     0.84500
O481        O  0.44254187  0.94509134  0.98763577    -0.80400
C482        C  0.28657973  0.79927448  0.23230382     0.80800
N483        N  0.25999063  0.80435446  0.24878407    -0.77500
C484        C  0.25139091  0.78516569  0.27231109     0.83300
N485        N  0.26989043  0.76004729  0.27941147    -0.77400
C486        C  0.29642441  0.75412568  0.26247294     0.83400
N487        N  0.30498414  0.77389026  0.23893549    -0.79100
N488        N  0.40189808  0.63326743  0.34269293    -0.36000
N489        N  0.41790142  0.59069666  0.39083359    -0.56600
N490        N  0.36277411  0.54785137  0.37244306    -0.36000
N491        N  0.35102067  0.59181014  0.32137712    -0.56600
C492        C  0.43027736  0.64498715  0.35134210     0.27600
C493        C  0.39432791  0.64626683  0.31516225     0.27600
C494        C  0.38174534  0.52953963  0.39105178     0.27600
C495        C  0.34545204  0.52926709  0.35230062     0.27600
C496        C  0.43075827  0.61796833  0.40144917     0.36200
C497        C  0.40896551  0.57457015  0.41634744     0.36200
C498        C  0.34259225  0.62004038  0.30893431     0.36200
C499        C  0.32460784  0.57374708  0.32088323     0.36200
C500        C  0.44143996  0.66534334  0.32849099    -0.21300
C501        C  0.41839127  0.66630628  0.30549096    -0.21300
C502        C  0.37590886  0.49811640  0.38300489    -0.21300
C503        C  0.35300786  0.49794191  0.35889220    -0.21300
C504        C  0.43061118  0.61899777  0.43383409    -0.22300
C505        C  0.41686218  0.59128673  0.44332558    -0.22300
C506        C  0.31092776  0.61986069  0.30052437    -0.22300
C507        C  0.29998230  0.59021196  0.30736458    -0.22300
C508        C  0.44250845  0.64169704  0.38174807    -0.17700
C509        C  0.36369669  0.64515305  0.30288627    -0.17700
C510        C  0.32331733  0.54140713  0.32898356    -0.17700
C511        C  0.40269584  0.54213129  0.41526359    -0.17700
H512        H  0.46276590  0.67956320  0.32939203     0.15200
H513        H  0.41834896  0.68142197  0.28507169     0.15200
H514        H  0.38674795  0.47748275  0.39348550     0.15200
H515        H  0.34333994  0.47716370  0.34741213     0.15200
H516        H  0.43939599  0.63765179  0.44899713     0.13500
H517        H  0.41408921  0.58359787  0.46730386     0.13500
H518        H  0.29757940  0.63847914  0.28918503     0.13500
H519        H  0.27689801  0.58096998  0.30222218     0.13500
H520        H  0.38626479  0.62060211  0.35664985     0.26800
H521        H  0.36127035  0.57242987  0.37413673     0.26800
C522        C  0.52731623  0.99483814  0.22726540     0.80800
N523        N  0.51443628  0.00832967  0.25319443    -0.77500
C524        C  0.48636632  0.02351142  0.25120460     0.83300
N525        N  0.47172032  0.02595429  0.22324754    -0.77400
C526        C  0.48426298  0.01305135  0.19713929     0.83400
N527        N  0.51174049  0.99637619  0.19932484    -0.79100
N528        N  0.59908123  0.88416652  0.33438566    -0.36000
N529        N  0.65597628  0.89762559  0.30728012    -0.56600
N530        N  0.69542283  0.87298762  0.36072019    -0.36000
N531        N  0.63723507  0.86294567  0.39165104    -0.56600
C532        C  0.58977747  0.90295923  0.31057074     0.27600
C533        C  0.57910450  0.88923825  0.35818803     0.27600
C534        C  0.71280626  0.89798183  0.34971057     0.27600
C535        C  0.70468381  0.86536301  0.39047466     0.27600
C536        C  0.63838173  0.89808476  0.28104150     0.36200
C537        C  0.68623174  0.89842168  0.29866919     0.36200
C538        C  0.60672082  0.85407523  0.39501575     0.36200
C539        C  0.65493663  0.84001292  0.40546582     0.36200
C540        C  0.56257201  0.91927228  0.31900835    -0.21300
C541        C  0.55582182  0.91052656  0.34932890    -0.21300
C542        C  0.73433756  0.90621474  0.37306372    -0.21300
C543        C  0.72975267  0.88528930  0.39832232    -0.21300
C544        C  0.65755519  0.89882363  0.25491096    -0.22300
C545        C  0.68815568  0.89874383  0.26617445    -0.22300
C546        C  0.60485870  0.82546307  0.41055397    -0.22300
C547        C  0.63523490  0.81626712  0.41663413    -0.22300
C548        C  0.60637706  0.90613950  0.28214222    -0.17700
C549        C  0.58035886  0.87267994  0.38643186    -0.17700
C550        C  0.68819315  0.84262956  0.41027961    -0.17700
C551        C  0.70848424  0.91204557  0.31888410    -0.17700
H552        H  0.54929202  0.93603715  0.30506702     0.15200
H553        H  0.53611264  0.91877207  0.36324476     0.15200
H554        H  0.75156993  0.92516941  0.37208290     0.15200
H555        H  0.74217692  0.88602617  0.42051141     0.15200
H556        H  0.65031200  0.90191002  0.23077553     0.13500
H557        H  0.70932561  0.90228221  0.25247908     0.13500
H558        H  0.58376391  0.81224310  0.41646047     0.13500
H559        H  0.64128883  0.79427238  0.42774691     0.13500
H560        H  0.61758882  0.86784061  0.33441935     0.26800
H561        H  0.67746309  0.86131655  0.34842416     0.26800
N562        N  0.34039123  0.94355559  0.12691056    -0.36000
N563        N  0.37713306  0.95588415  0.07304912    -0.56600
N564        N  0.35535919  0.90113454  0.03503263    -0.36000
N565        N  0.31977759  0.88623602  0.08926275    -0.56600
C566        C  0.36390490  0.96180556  0.13849408     0.27600
C567        C  0.33380526  0.92166772  0.14870812     0.27600
C568        C  0.38516029  0.90672875  0.02370347     0.27600
C569        C  0.34624521  0.87047731  0.02918294     0.27600
C570        C  0.37807761  0.98378878  0.08832677     0.36200
C571        C  0.38792569  0.96131440  0.04418144     0.36200
C572        C  0.30066631  0.88953695  0.11417913     0.36200
C573        C  0.30292240  0.87022033  0.06748395     0.36200
C574        C  0.37095698  0.95276348  0.16892996    -0.21300
C575        C  0.35189663  0.92708488  0.17537602    -0.21300
C576        C  0.39511371  0.87887268  0.00936419    -0.21300
C577        C  0.37060340  0.85632960  0.01242227    -0.21300
C578        C  0.38895221  0.00753885  0.06899773    -0.22300
C579        C  0.39471926  0.99339162  0.04064710    -0.22300
C580        C  0.27157850  0.87563435  0.10859965    -0.22300
C581        C  0.27251974  0.86434297  0.07851553    -0.22300
C582        C  0.38047375  0.98438372  0.12077929    -0.17700
C583        C  0.31256190  0.89660892  0.14386556    -0.17700
C584        C  0.31706984  0.85609640  0.04090848    -0.17700
C585        C  0.40201828  0.93683942  0.02692076    -0.17700
H586        H  0.38888576  0.96265960  0.18428952     0.15200
H587        H  0.35219111  0.91339792  0.19674403     0.15200
H588        H  0.41768567  0.87502206  0.99811357     0.15200
H589        H  0.37132704  0.83198874  0.00443582     0.15200
H590        H  0.39523279  0.03147423  0.07575585     0.13500
H591        H  0.40635659  0.00441621  0.02096493     0.13500
H592        H  0.25238072  0.87270029  0.12504677     0.13500
H593        H  0.25349000  0.85172124  0.06690185     0.13500
H594        H  0.32999203  0.94512452  0.10476302     0.26800
H595        H  0.34136255  0.91791166  0.04636665     0.26800
C596        C  0.24740224  0.95800121  0.49117763     0.80800
N597        N  0.24981923  0.98608770  0.47591752    -0.77500
C598        C  0.27741448  0.00235943  0.47631894     0.83300
N599        N  0.30295627  0.99025970  0.49109256    -0.77400
C600        C  0.30123838  0.96191111  0.50553050     0.83400
N601        N  0.27338438  0.94578266  0.50563895    -0.79100
C602        C  0.50332479  0.76700897  0.50270883     0.80800
N603        N  0.49628931  0.74033148  0.48605483    -0.77500
C604        C  0.49769083  0.74108113  0.45429044     0.83300
N605        N  0.50404580  0.76856598  0.43958801    -0.77400
C606        C  0.50975706  0.79535014  0.45594587     0.83400
N607        N  0.50979781  0.79438417  0.48750047    -0.79100
N608        N  0.41985582  0.87247274  0.60945959    -0.36000
N609        N  0.37608712  0.91043211  0.64802436    -0.56600
N610        N  0.38135596  0.86395176  0.69826912    -0.36000
N611        N  0.42806062  0.82876798  0.65872864    -0.56600
C612        C  0.41628308  0.89808920  0.59134749     0.27600
C613        C  0.44417129  0.85548727  0.59781084     0.27600
C614        C  0.36620660  0.88825076  0.71320383     0.27600
C615        C  0.39741899  0.84597001  0.71962236     0.27600
C616        C  0.36997480  0.92154067  0.61891931     0.36200
C617        C  0.35074677  0.91856928  0.66565344     0.36200
C618        C  0.43938722  0.81137273  0.63475132     0.36200
C619        C  0.42022400  0.80809718  0.68116923     0.36200
C620        C  0.43888751  0.89799313  0.56791668    -0.21300
C621        C  0.45674446  0.87101124  0.57210494    -0.21300
C622        C  0.37206559  0.88514806  0.74505503    -0.21300
C623        C  0.39200553  0.85889720  0.74903783    -0.21300
C624        C  0.34106712  0.93714227  0.61841977    -0.22300
C625        C  0.32908096  0.93547189  0.64790107    -0.22300
C626        C  0.43955585  0.77952815  0.64211332    -0.22300
C627        C  0.42704996  0.77733271  0.67134957    -0.22300
C628        C  0.38970271  0.91783772  0.59239436    -0.17700
C629        C  0.45144561  0.82437351  0.60717033    -0.17700
C630        C  0.41494419  0.81744549  0.71227870    -0.17700
C631        C  0.34727542  0.91235115  0.69794066    -0.17700
H632        H  0.44108206  0.91468833  0.54886530     0.15200
H633        H  0.47543286  0.86289129  0.55682954     0.15200
H634        H  0.36332814  0.90044394  0.76345859     0.15200
H635        H  0.40094973  0.85003785  0.77110156     0.15200
H636        H  0.32937411  0.94836110  0.59882345     0.13500
H637        H  0.30660252  0.94522133  0.65521137     0.13500
H638        H  0.44832360  0.75991420  0.62830573     0.13500
H639        H  0.42439170  0.75540292  0.68402887     0.13500
H640        H  0.40378308  0.86534918  0.62631200     0.26800
H641        H  0.37986959  0.85911465  0.67441398     0.26800
N642        N  0.37254718  0.10592144  0.36820888    -0.36000
N643        N  0.41172610  0.15465952  0.33802133    -0.56600
N644        N  0.37400928  0.20583705  0.36399642    -0.36000
N645        N  0.33832337  0.15546393  0.39663469    -0.56600
C646        C  0.39891313  0.08941996  0.36222608     0.27600
C647        C  0.35657892  0.08999592  0.39029788     0.27600
C648        C  0.39868019  0.22218230  0.35101206     0.27600
C649        C  0.36181958  0.22201647  0.38914125     0.27600
C650        C  0.42026851  0.12713891  0.32395800     0.36200
C651        C  0.41799626  0.17802396  0.31724151     0.36200
C652        C  0.31785114  0.13124486  0.39987313     0.36200
C653        C  0.32112844  0.18194408  0.39995924     0.36200
C654        C  0.39975007  0.06223427  0.38036301    -0.21300
C655        C  0.37269444  0.06259656  0.39830699    -0.21300
C656        C  0.40168396  0.25035609  0.36773767    -0.21300
C657        C  0.37898644  0.25002451  0.39187851    -0.21300
C658        C  0.43183924  0.13280859  0.29432155    -0.22300
C659        C  0.43035083  0.16479005  0.28997762    -0.22300
C660        C  0.28788383  0.14214396  0.40583050    -0.22300
C661        C  0.28943419  0.17438321  0.40449694    -0.22300
C662        C  0.41991030  0.09708303  0.33830955    -0.17700
C663        C  0.32726734  0.09971200  0.40190634    -0.17700
C664        C  0.33511267  0.21105457  0.40794530    -0.17700
C665        C  0.41738700  0.21099721  0.32447508    -0.17700
H666        H  0.41765771  0.04392088  0.38021891     0.15200
H667        H  0.36562581  0.04479355  0.41507527     0.15200
H668        H  0.41885281  0.26888991  0.36353566     0.15200
H669        H  0.37543067  0.26846479  0.40915143     0.15200
H670        H  0.44110908  0.11576636  0.27774955     0.13500
H671        H  0.43909435  0.17656252  0.26939753     0.13500
H672        H  0.26775410  0.12825167  0.41218902     0.13500
H673        H  0.27012134  0.19047164  0.40943496     0.13500
H674        H  0.36481939  0.12596179  0.35626342     0.26800
H675        H  0.36528105  0.18449846  0.35527028     0.26800
N676        N  0.13949659  0.85047479  0.40268852    -0.36000
N677        N  0.09105692  0.88760651  0.43250671    -0.56600
N678        N  0.04279962  0.86864471  0.38514011    -0.36000
N679        N  0.09352482  0.83623225  0.35184761    -0.56600
C680        C  0.15690196  0.86728872  0.42357600     0.27600
C681        C  0.15928617  0.84175671  0.37963646     0.27600
C682        C  0.02637255  0.89157534  0.40112046     0.27600
C683        C  0.02606640  0.85846093  0.35940551     0.27600
C684        C  0.11253828  0.88488794  0.45583476     0.36200
C685        C  0.06365110  0.89553265  0.44633584     0.36200
C686        C  0.12005156  0.82350609  0.33945709     0.36200
C687        C  0.06979278  0.82896603  0.33167835     0.36200
C688        C  0.18821786  0.86844205  0.41405330    -0.21300
C689        C  0.18979767  0.85192564  0.38651124    -0.21300
C690        C  0.99791770  0.89577376  0.38517441    -0.21300
C691        C  0.99746539  0.87466288  0.35958762    -0.21300
C692        C  0.09914754  0.89133041  0.48447541    -0.22300
C693        C  0.06789897  0.89731991  0.47857565    -0.22300
C694        C  0.11342540  0.80914910  0.31102026    -0.22300
C695        C  0.08189941  0.81262227  0.30604412    -0.22300
C696        C  0.14499882  0.88172128  0.45081618    -0.17700
C697        C  0.15079146  0.82540805  0.35218699    -0.17700
C698        C  0.03716770  0.83610666  0.33555654    -0.17700
C699        C  0.03688537  0.90715005  0.43013257    -0.17700
H700        H  0.20792737  0.88033855  0.42526968     0.15200
H701        H  0.21092415  0.84870408  0.37262072     0.15200
H702        H  0.97906655  0.91183787  0.39151159     0.15200
H703        H  0.97862801  0.87236140  0.34248607     0.15200
H704        H  0.11095967  0.89239380  0.50699266     0.13500
H705        H  0.05046327  0.90398851  0.49587234     0.13500
H706        H  0.12958468  0.79711192  0.29540187     0.13500
H707        H  0.06949463  0.80380069  0.28558803     0.13500
H708        H  0.11559820  0.84479667  0.40418759     0.26800
H709        H  0.06463124  0.85989276  0.39191722     0.26800
O710        O  0.71889017  0.99120847  0.18181944    -0.77900
C711        C  0.76889272  0.08045541  0.19289775     0.83200
O712        O  0.80989501  0.96002202  0.25795403    -0.79000
O713        O  0.78514787  0.06175641  0.30231932    -0.80500
O714        O  0.67262332  0.04009267  0.27193501    -0.80300
O715        O  0.67794686  0.98677085  0.21390974    -0.78900
Zn716      Zn  0.75733378  0.00816966  0.20770209     1.55700
O717        O  0.70560550  0.08113950  0.27731032    -0.80300
Cd718      Cd  0.70008394  0.00065747  0.25737406     1.59700
Cd719      Cd  0.77512487  0.98574948  0.28248155     1.59600
O720        O  0.70137641  0.96079785  0.28978296    -0.80300
O721        O  0.74609900  0.01392075  0.25246832    -1.90800
Cd722      Cd  0.75065775  0.06093379  0.26330016     1.59900
O723        O  0.75017145  0.95037436  0.30741235    -0.80300
O724        O  0.76376588  0.08766776  0.22182896    -0.78900
C725        C  0.81472166  0.95952150  0.22856812     0.83600
C726        C  0.68966595  0.98427460  0.18638461     0.83300
O727        O  0.76773327  0.05127694  0.18433033    -0.77900
C728        C  0.67754027  0.06937793  0.27870472     0.84100
O729        O  0.79659104  0.97568185  0.20976256    -0.78000
C730        C  0.72080427  0.94354738  0.30614397     0.84200
C731        C  0.80066824  0.04271626  0.32080540     0.84500
O732        O  0.79984654  0.01282268  0.31633043    -0.80400
O733        O  0.81323889  0.22501501  0.95300673    -0.77900
C734        C  0.81303381  0.31002645  0.01112729     0.83200
O735        O  0.74356787  0.19696037  0.05108753    -0.79000
O736        O  0.70328661  0.29979822  0.03050526    -0.80500
O737        O  0.71962036  0.28889529  0.91830019    -0.80300
O738        O  0.77902479  0.23223642  0.91413750    -0.78900
Zn739      Zn  0.79085517  0.24155729  0.99333433     1.55700
O740        O  0.72731617  0.32413957  0.95662218    -0.80300
Cd741      Cd  0.73714439  0.24622668  0.94038355     1.59700
Cd742      Cd  0.71710757  0.22471923  0.01758458     1.59600
O743        O  0.70428533  0.20730621  0.94072344    -0.80300
O744        O  0.74635991  0.25237630  0.98716480    -1.90800
Cd745      Cd  0.74128926  0.29889353  0.99710869     1.59900
O746        O  0.69363045  0.19021806  0.98940622    -0.80300
O747        O  0.78480777  0.32113816  0.01273812    -0.78900
C748        C  0.77367348  0.19422979  0.05241194     0.83600
C749        C  0.80676606  0.22415339  0.92365300     0.83300
O750        O  0.81734378  0.28155065  0.00199192    -0.77900
C751        C  0.71887123  0.31760218  0.92846717     0.84100
O752        O  0.79070532  0.20968392  0.03231254    -0.78000
C753        C  0.69210023  0.18670608  0.95962114     0.84200
C754        C  0.68349497  0.28338461  0.04691919     0.84500
O755        O  0.68400681  0.25305209  0.04476498    -0.80400
C756        C  0.28607485  0.25720159  0.78777416     0.80800
N757        N  0.28609028  0.27216704  0.75980250    -0.77500
C758        C  0.27357400  0.30153054  0.75687056     0.83300
N759        N  0.26113494  0.31592150  0.78224306    -0.77400
C760        C  0.26070768  0.30113466  0.81031271     0.83400
N761        N  0.27307744  0.27167717  0.81305093    -0.79100
C762        C  0.48583086  0.31055796  0.94523445     0.80800
N763        N  0.46369992  0.31502927  0.96779392    -0.77500
C764        C  0.44105361  0.29270686  0.97288608     0.83300
N765        N  0.44065164  0.26595741  0.95523140    -0.77400
C766        C  0.46272163  0.26136584  0.93272318     0.83400
N767        N  0.48520130  0.28355743  0.92794663    -0.79100
C768        C  0.48661630  0.47179880  0.75364382     0.80800
N769        N  0.51758867  0.47559329  0.76182166    -0.77500
C770        C  0.52497931  0.49276356  0.78792640     0.83300
N771        N  0.50148012  0.50461497  0.80587831    -0.77400
C772        C  0.47080202  0.50003162  0.79823352     0.83400
N773        N  0.46345821  0.48411432  0.77182272    -0.79100
C774        C  0.19918238  0.51520133  0.00072331     0.80800
N775        N  0.20430633  0.48711182  0.01522769    -0.77500
C776        C  0.23151017  0.48217480  0.03127459     0.83300
N777        N  0.25372555  0.50536349  0.03279722    -0.77400
C778        C  0.24870199  0.53373139  0.01895486     0.83400
N779        N  0.22163525  0.53814963  0.00229015    -0.79100
N780        N  0.37618303  0.60077225  0.91870016    -0.36000
N781        N  0.39694343  0.63975587  0.86441322    -0.56600
N782        N  0.37698214  0.69758139  0.89503236    -0.36000
N783        N  0.35259097  0.65701763  0.94596876    -0.56600
C784        C  0.37740806  0.57880820  0.89583160     0.27600
C785        C  0.35756607  0.58900434  0.94158692     0.27600
C786        C  0.38712251  0.70909099  0.86683016     0.27600
C787        C  0.35327433  0.71626993  0.90703802     0.27600
C788        C  0.40760102  0.61044580  0.85695280     0.36200
C789        C  0.41475873  0.66037026  0.84769396     0.36200
C790        C  0.35392112  0.63829933  0.97138615     0.36200
C791        C  0.34851282  0.68667435  0.95646907     0.36200
C792        C  0.36036582  0.55219942  0.90451716    -0.21300
C793        C  0.34749981  0.55875101  0.93337773    -0.21300
C794        C  0.37030543  0.73679570  0.86125307    -0.21300
C795        C  0.34864799  0.74085878  0.88596103    -0.21300
C796        C  0.43176139  0.61241904  0.83521208    -0.22300
C797        C  0.43639688  0.64379019  0.82946851    -0.22300
C798        C  0.35076015  0.65606978  0.99847920    -0.22300
C799        C  0.34738680  0.68693339  0.98898934    -0.22300
C800        C  0.39523829  0.58155516  0.86832859    -0.17700
C801        C  0.34937531  0.60552279  0.96923126    -0.17700
C802        C  0.33736640  0.71099086  0.93698689    -0.17700
C803        C  0.41026756  0.69371487  0.84642018    -0.17700
H804        H  0.35731788  0.53048731  0.89127670     0.15200
H805        H  0.33231748  0.54305560  0.94651583     0.15200
H806        H  0.37245786  0.75186543  0.84093189     0.15200
H807        H  0.33186805  0.76004960  0.88830040     0.15200
H808        H  0.44491022  0.59326354  0.82453956     0.13500
H809        H  0.45349544  0.65305199  0.81307030     0.13500
H810        H  0.34866296  0.64738247  0.02220434     0.13500
H811        H  0.34224603  0.70697646  0.00399021     0.13500
H812        H  0.38833304  0.62222966  0.91896114     0.26800
H813        H  0.38652629  0.67776018  0.90585793     0.26800
N814        N  0.61931783  0.43668413  0.90610672    -0.36000
N815        N  0.65072271  0.37334641  0.91448303    -0.56600
N816        N  0.70431659  0.39113411  0.87706940    -0.36000
N817        N  0.67048210  0.46683953  0.84478283    -0.56600
C818        C  0.59463877  0.41951402  0.91640601     0.27600
C819        C  0.60761037  0.46349102  0.89329121     0.27600
C820        C  0.71394766  0.36165275  0.88532043     0.27600
C821        C  0.71980262  0.40127834  0.85107764     0.27600
C822        C  0.62409279  0.37033653  0.93170027     0.36200
C823        C  0.67075468  0.35021304  0.92405315     0.36200
C824        C  0.65734385  0.47976164  0.87042991     0.36200
C825        C  0.69819785  0.45470217  0.85423004     0.36200
C826        C  0.56684244  0.43642752  0.91171190    -0.21300
C827        C  0.57504043  0.46417462  0.89705680    -0.21300
C828        C  0.73710342  0.35260433  0.86400664    -0.21300
C829        C  0.74011951  0.37714677  0.84193880    -0.21300
C830        C  0.62670416  0.34483253  0.95174123    -0.22300
C831        C  0.65625681  0.33238899  0.94733829    -0.22300
C832        C  0.67766927  0.47780908  0.89587802    -0.22300
C833        C  0.70384097  0.46166054  0.88552637    -0.22300
C834        C  0.59610148  0.38823667  0.92798325    -0.17700
C835        C  0.62459015  0.48304167  0.87241867    -0.17700
C836        C  0.71375464  0.43165635  0.83651638    -0.17700
C837        C  0.70115388  0.34345235  0.91110431    -0.17700
H838        H  0.54291715  0.42891676  0.91679725     0.15200
H839        H  0.55870139  0.48177722  0.88824692     0.15200
H840        H  0.74952927  0.33020692  0.86356241     0.15200
H841        H  0.75564718  0.37723744  0.82186574     0.15200
H842        H  0.60907865  0.33619826  0.96795076     0.13500
H843        H  0.66548662  0.31185768  0.95940756     0.13500
H844        H  0.67247602  0.48400864  0.91991994     0.13500
H845        H  0.72331919  0.45337744  0.89985338     0.13500
H846        H  0.64328909  0.42896002  0.90528964     0.26800
H847        H  0.68704064  0.40468283  0.88909177     0.26800
N848        N  0.37295213  0.38639471  0.64512286    -0.36000
N849        N  0.42004775  0.40085041  0.59745805    -0.56600
N850        N  0.37528558  0.38261730  0.54813849    -0.36000
N851        N  0.33220032  0.36168981  0.59725223    -0.56600
C852        C  0.39918885  0.38822015  0.66308329     0.27600
C853        C  0.35044249  0.37212586  0.66233974     0.27600
C854        C  0.40013788  0.39259250  0.53056168     0.27600
C855        C  0.35784486  0.36078968  0.53170481     0.27600
C856        C  0.43568321  0.41066022  0.62347267     0.36200
C857        C  0.43414808  0.41573869  0.57325395     0.36200
C858        C  0.31091078  0.36515905  0.62032003     0.36200
C859        C  0.31556287  0.35564555  0.57107829     0.36200
C860        C  0.39317565  0.37575676  0.69243256    -0.21300
C861        C  0.36237088  0.36530773  0.69192008    -0.21300
C862        C  0.39782228  0.37803841  0.50149792    -0.21300
C863        C  0.37179848  0.35744248  0.50247208    -0.21300
C864        C  0.46057150  0.43040487  0.61570690    -0.22300
C865        C  0.45934741  0.43406483  0.58416185    -0.22300
C866        C  0.28042203  0.36126884  0.60892867    -0.22300
C867        C  0.28336725  0.35523758  0.57751484    -0.22300
C868        C  0.42736963  0.40346252  0.65453007    -0.17700
C869        C  0.31933744  0.36572313  0.65200463    -0.17700
C870        C  0.32946840  0.34522004  0.54304800    -0.17700
C871        C  0.42527619  0.41317741  0.54129010    -0.17700
H872        H  0.40927875  0.37442368  0.71215086     0.15200
H873        H  0.35023560  0.35408149  0.71119725     0.15200
H874        H  0.41403016  0.38078455  0.48214504     0.15200
H875        H  0.36394648  0.34223772  0.48355197     0.15200
H876        H  0.47746049  0.44177904  0.63122137     0.13500
H877        H  0.47545229  0.44875743  0.57094861     0.13500
H878        H  0.25861774  0.36129374  0.62215166     0.13500
H879        H  0.26419928  0.34998405  0.56141529     0.13500
H880        H  0.36993452  0.39597519  0.62298131     0.26800
H881        H  0.37055234  0.39102454  0.57041272     0.26800
N882        N  0.32487472  0.34329757  0.09991518    -0.36000
N883        N  0.37610698  0.32231672  0.13947842    -0.56600
N884        N  0.35892371  0.37102162  0.18720033    -0.36000
N885        N  0.30404244  0.38832321  0.14700269    -0.56600
C886        C  0.33593300  0.31908388  0.08274206     0.27600
C887        C  0.29663869  0.35143521  0.08776103     0.27600
C888        C  0.37953562  0.35263950  0.20402163     0.27600
C889        C  0.34179348  0.39018112  0.20686083     0.27600
C890        C  0.38590280  0.31049682  0.11157116     0.36200
C891        C  0.40124054  0.32045357  0.15900706     0.36200
C892        C  0.28973010  0.39896900  0.12069939     0.36200
C893        C  0.30801441  0.41406665  0.16545050     0.36200
C894        C  0.31427573  0.31112276  0.05956009    -0.21300
C895        C  0.28910946  0.33153566  0.06292462    -0.21300
C896        C  0.37597366  0.36097088  0.23534108    -0.21300
C897        C  0.35237509  0.38437314  0.23711378    -0.21300
C898        C  0.41697670  0.30053873  0.11351514    -0.22300
C899        C  0.42645476  0.30621839  0.14360378    -0.22300
C900        C  0.28442009  0.43134328  0.12272089    -0.22300
C901        C  0.29593935  0.44086156  0.15102296    -0.22300
C902        C  0.36720020  0.30837247  0.08421101    -0.17700
C903        C  0.28128292  0.37997503  0.09469725    -0.17700
C904        C  0.31801554  0.41308813  0.19683170    -0.17700
C905        C  0.40173926  0.32963362  0.19100584    -0.17700
H906        H  0.31721047  0.29369850  0.04115211     0.15200
H907        H  0.26882058  0.33318414  0.04746093     0.15200
H908        H  0.38910169  0.35134546  0.25491568     0.15200
H909        H  0.34423130  0.39594758  0.25822852     0.15200
H910        H  0.43122008  0.28985117  0.09533786     0.13500
H911        H  0.44943639  0.30047903  0.15308405     0.13500
H912        H  0.27360260  0.44675002  0.10558030     0.13500
H913        H  0.29525243  0.46481929  0.16010171     0.13500
H914        H  0.33789266  0.35626565  0.11612382     0.26800
H915        H  0.35726132  0.37123349  0.16296148     0.26800
N916        N  0.40648578  0.13267523  0.82687086    -0.36000
N917        N  0.43950897  0.09239781  0.87207285    -0.56600
N918        N  0.38596762  0.04515062  0.86363033    -0.36000
N919        N  0.35720187  0.08798414  0.81562556    -0.56600
C920        C  0.43387750  0.14838511  0.83091451     0.27600
C921        C  0.39062726  0.14684414  0.80346435     0.27600
C922        C  0.40823813  0.02853532  0.88027552     0.27600
C923        C  0.36683428  0.02500758  0.84676431     0.27600
C924        C  0.44696162  0.12248765  0.88058515     0.36200
C925        C  0.43620008  0.07621801  0.89917397     0.36200
C926        C  0.34228892  0.11500695  0.80761715     0.36200
C927        C  0.33426004  0.06726119  0.82292035     0.36200
C928        C  0.43636323  0.17204548  0.80852525    -0.21300
C929        C  0.40875716  0.17114669  0.79116842    -0.21300
C930        C  0.40255641  0.99655993  0.87440197    -0.21300
C931        C  0.37690417  0.99439233  0.85326930    -0.21300
C932        C  0.44859475  0.12517581  0.91289691    -0.22300
C933        C  0.44112981  0.09610666  0.92462312    -0.22300
C934        C  0.30975965  0.11127133  0.80905438    -0.22300
C935        C  0.30462890  0.08074346  0.81845922    -0.22300
C936        C  0.44990672  0.14826684  0.85976793    -0.17700
C937        C  0.35799284  0.14285094  0.79882289    -0.17700
C938        C  0.33993458  0.03499622  0.82755535    -0.17700
C939        C  0.43195076  0.04305584  0.90096224    -0.17700
H940        H  0.45433732  0.19030208  0.80735275     0.15200
H941        H  0.40154839  0.18818045  0.77364971     0.15200
H942        H  0.41538538  0.97674341  0.88416865     0.15200
H943        H  0.36649867  0.97271801  0.84433711     0.15200
H944        H  0.45323200  0.14621404  0.92673298     0.13500
H945        H  0.43904775  0.09039894  0.94921727     0.13500
H946        H  0.29168425  0.12856525  0.80360070     0.13500
H947        H  0.28174829  0.06961544  0.82138391     0.13500
H948        H  0.39665872  0.11712147  0.84296379     0.26800
H949        H  0.38334151  0.06965571  0.86461203     0.26800
N950        N  0.14195265  0.41114165  0.88206664    -0.36000
N951        N  0.10524775  0.35408426  0.85813415    -0.56600
N952        N  0.04769223  0.38964963  0.85951261    -0.36000
N953        N  0.08564149  0.44277581  0.88653626    -0.56600
C954        C  0.16006973  0.38639294  0.88985908     0.27600
C955        C  0.14948403  0.43511249  0.90171946     0.27600
C956        C  0.03744442  0.35973504  0.85284015     0.27600
C957        C  0.02758427  0.40407609  0.88014597     0.27600
C958        C  0.13632772  0.34869611  0.85245488     0.36200
C959        C  0.08875849  0.33955655  0.83470592     0.36200
C960        C  0.10534053  0.46763510  0.88672499     0.36200
C961        C  0.05695412  0.45348703  0.87927715     0.36200
C962        C  0.18015528  0.39456696  0.91435420    -0.21300
C963        C  0.17322192  0.42555469  0.92213669    -0.21300
C964        C  0.00922478  0.35514404  0.86887447    -0.21300
C965        C  0.00345172  0.38272385  0.88661855    -0.21300
C966        C  0.13978602  0.33100526  0.82544060    -0.22300
C967        C  0.10997241  0.32570396  0.81395569    -0.22300
C968        C  0.08938631  0.49510643  0.87928038    -0.22300
C969        C  0.05845559  0.48601336  0.87399413    -0.22300
C970        C  0.16169209  0.35883129  0.87182361    -0.17700
C971        C  0.13494677  0.46510045  0.90073313    -0.17700
C972        C  0.03103411  0.43664013  0.89067233    -0.17700
C973        C  0.05492339  0.33734854  0.83367396    -0.17700
H974        H  0.19822676  0.37990713  0.92496519     0.15200
H975        H  0.18449861  0.43942796  0.94040011     0.15200
H976        H  0.99499683  0.33380823  0.86889852     0.15200
H977        H  0.98343261  0.38678858  0.90181874     0.15200
H978        H  0.16160403  0.32344345  0.81454289     0.13500
H979        H  0.10539447  0.31365523  0.79220791     0.13500
H980        H  0.09855764  0.51906330  0.87964441     0.13500
H981        H  0.03881831  0.50189593  0.86980773     0.13500
H982        H  0.12657441  0.41192085  0.86290595     0.26800
H983        H  0.06776610  0.39992563  0.84966377     0.26800
C984        C  0.74669474  0.74608199  0.26646597     0.80800
N985        N  0.74079084  0.76808891  0.24441557    -0.77500
C986        C  0.76013508  0.77102606  0.21930532     0.83300
N987        N  0.78484213  0.75069592  0.21571941    -0.77400
C988        C  0.79079407  0.72844336  0.23800204     0.83400
N989        N  0.77166502  0.72664572  0.26307901    -0.79100
N990        N  0.62878939  0.62971458  0.34448776    -0.36000
N991        N  0.64439663  0.67315038  0.39360694    -0.56600
N992        N  0.60800006  0.63844447  0.43989399    -0.36000
N993        N  0.59517792  0.59090868  0.39071066    -0.56600
C994        C  0.65184500  0.64690557  0.33122840     0.27600
C995        C  0.62895131  0.60101438  0.33073719     0.27600
C996        C  0.62917367  0.65423933  0.45875961     0.27600
C997        C  0.59406721  0.61417382  0.45590823     0.27600
C998        C  0.65010203  0.69121925  0.36831530     0.36200
C999        C  0.64624847  0.69267119  0.41847986     0.36200
C1000       C  0.58559647  0.58081380  0.36209993     0.36200
C1001       C  0.56935477  0.58955781  0.40923980     0.36200
C1002       C  0.66697245  0.62909227  0.30841558    -0.21300
C1003       C  0.65243923  0.59974147  0.30820795    -0.21300
C1004       C  0.62818563  0.63995551  0.48796016    -0.21300
C1005       C  0.60602386  0.61510295  0.48629958    -0.21300
C1006       C  0.65517968  0.72244728  0.37697165    -0.22300
C1007       C  0.65338738  0.72322954  0.40881662    -0.22300
C1008       C  0.55379473  0.57333200  0.36208824    -0.22300
C1009       C  0.54329320  0.57956758  0.39167818    -0.22300
C1010       C  0.65814141  0.67854090  0.33910083    -0.17700
C1011       C  0.60553781  0.57817009  0.33598508    -0.17700
C1012       C  0.57088215  0.59236915  0.44240282    -0.17700
C1013       C  0.64757404  0.68188393  0.44953922    -0.17700
H1014       H  0.68619913  0.63652239  0.29345695     0.15200
H1015       H  0.65782973  0.58011427  0.29276376     0.15200
H1016       H  0.64166217  0.64691143  0.50845783     0.15200
H1017       H  0.59998961  0.59937477  0.50528820     0.15200
H1018       H  0.66204277  0.74202129  0.36213778     0.13500
H1019       H  0.65841739  0.74369555  0.42313077     0.13500
H1020       H  0.53949390  0.56520301  0.34255613     0.13500
H1021       H  0.51898818  0.57698508  0.39910023     0.13500
H1022       H  0.61233098  0.63798480  0.36065491     0.26800
H1023       H  0.60224365  0.64432509  0.41694890     0.26800
C1024       C  0.76686374  0.51945322  0.97144341     0.80800
N1025       N  0.79069870  0.52171376  0.99268620    -0.77500
C1026       C  0.78895415  0.50509460  0.01982913     0.83300
N1027       N  0.76263199  0.48811015  0.02625393    -0.77400
C1028       C  0.73831766  0.48692809  0.00567232     0.83400
N1029       N  0.74057891  0.50238389  0.97815212    -0.79100
C1030       C  0.50820832  0.70267337  0.03265741     0.80800
N1031       N  0.52107142  0.67987389  0.01442575    -0.77500
C1032       C  0.55090402  0.68294565  0.00355360     0.83300
N1033       N  0.56785604  0.70931712  0.01054734    -0.77400
C1034       C  0.55524208  0.73204934  0.02896272     0.83400
N1035       N  0.52560579  0.72855874  0.04033309    -0.79100
C1036       C  0.50970846  0.47739803  0.21243841     0.80800
N1037       N  0.53401503  0.48440029  0.23226383    -0.77500
C1038       C  0.53045779  0.50681213  0.25466619     0.83300
N1039       N  0.50292668  0.52309514  0.25664037    -0.77400
C1040       C  0.47848346  0.51636958  0.23717986     0.83400
N1041       N  0.48213388  0.49354424  0.21507306    -0.79100
N1042       N  0.38636054  0.64105026  0.14856349    -0.36000
N1043       N  0.34010261  0.66776533  0.10413690    -0.56600
N1044       N  0.28705864  0.63912617  0.13669829    -0.36000
N1045       N  0.33504608  0.61023220  0.17819465    -0.56600
C1046       C  0.40486395  0.64714416  0.12381943     0.27600
C1047       C  0.40165833  0.61944539  0.16620946     0.27600
C1048       C  0.27288080  0.65026379  0.11001915     0.27600
C1049       C  0.27154583  0.61265400  0.14739148     0.27600
C1050       C  0.36746713  0.68156380  0.09503547     0.36200
C1051       C  0.31666369  0.68551719  0.09167107     0.36200
C1052       C  0.35739457  0.60835499  0.20069165     0.36200
C1053       C  0.30737178  0.60440861  0.19232454     0.36200
C1054       C  0.43277397  0.62996359  0.12607325    -0.21300
C1055       C  0.43068950  0.61227423  0.15298709    -0.21300
C1056       C  0.24698414  0.63082029  0.10392705    -0.21300
C1057       C  0.24645728  0.60701969  0.12696752    -0.21300
C1058       C  0.36169254  0.70774913  0.07665783    -0.22300
C1059       C  0.32970884  0.71050279  0.07465694    -0.22300
C1060       C  0.34416123  0.60119936  0.22923684    -0.22300
C1061       C  0.31219810  0.59952824  0.22414770    -0.22300
C1062       C  0.39773925  0.66922762  0.10043647    -0.17700
C1063       C  0.38957069  0.60650651  0.19392624    -0.17700
C1064       C  0.28028639  0.59493390  0.17549796    -0.17700
C1065       C  0.28409439  0.67712871  0.09162450    -0.17700
H1066       H  0.45251194  0.63012759  0.11000103     0.15200
H1067       H  0.44837844  0.59596328  0.16168912     0.15200
H1068       H  0.23080771  0.63282160  0.08433143     0.15200
H1069       H  0.22948228  0.58787181  0.12844466     0.15200
H1070       H  0.37876387  0.72290766  0.06521922     0.13500
H1071       H  0.31790378  0.72823374  0.06066364     0.13500
H1072       H  0.35654208  0.59592353  0.25077822     0.13500
H1073       H  0.29464963  0.59255960  0.24115511     0.13500
H1074       H  0.36491692  0.65200640  0.15368094     0.26800
H1075       H  0.30636971  0.64990570  0.14760505     0.26800
N1076       N  0.58454606  0.39851162  0.06864481    -0.36000
N1077       N  0.56026633  0.35197200  0.11342932    -0.56600
N1078       N  0.61327726  0.30795348  0.10392509    -0.36000
N1079       N  0.63828265  0.35522408  0.05857977    -0.56600
C1080       C  0.56138279  0.41574297  0.08203786     0.27600
C1081       C  0.60479645  0.41926344  0.05563906     0.27600
C1082       C  0.59410284  0.28951535  0.12212688     0.27600
C1083       C  0.63455216  0.28959120  0.08779074     0.27600
C1084       C  0.53535419  0.37131693  0.10815825     0.36200
C1085       C  0.54833664  0.32576528  0.12676066     0.36200
C1086       C  0.65179120  0.38367103  0.05285956     0.36200
C1087       C  0.66242500  0.33519662  0.06500763     0.36200
C1088       C  0.56561830  0.44758948  0.07568463    -0.21300
C1089       C  0.59286445  0.44981151  0.05840214    -0.21300
C1090       C  0.60396161  0.25834642  0.11809259    -0.21300
C1091       C  0.62880378  0.25833325  0.09621758    -0.21300
C1092       C  0.50758334  0.35767059  0.11828273    -0.22300
C1093       C  0.51566525  0.32841764  0.12924543    -0.22300
C1094       C  0.68448146  0.38147824  0.05554631    -0.22300
C1095       C  0.69106458  0.35116194  0.06410689    -0.22300
C1096       C  0.53859404  0.40367720  0.10260412    -0.17700
C1097       C  0.63565450  0.41210011  0.04558504    -0.17700
C1098       C  0.65929384  0.30192341  0.06730033    -0.17700
C1099       C  0.56652365  0.30074416  0.13945711    -0.17700
H1100       H  0.55129157  0.46717906  0.08381987     0.15200
H1101       H  0.60390791  0.47168821  0.05102974     0.15200
H1102       H  0.59338073  0.23753510  0.12844321     0.15200
H1103       H  0.64127342  0.23762321  0.08787652     0.15200
H1104       H  0.48423112  0.36818461  0.11861219     0.13500
H1105       H  0.49946291  0.31115459  0.13861582     0.13500
H1106       H  0.70196404  0.39994441  0.05249301     0.13500
H1107       H  0.71444817  0.34176218  0.06873234     0.13500
H1108       H  0.58741617  0.37419039  0.07018316     0.26800
H1109       H  0.61217955  0.33250581  0.10310912     0.26800
N1110       N  0.65103607  0.59871486  0.88354193    -0.36000
N1111       N  0.59564773  0.62580650  0.84895269    -0.56600
N1112       N  0.63186720  0.62254638  0.79223921    -0.36000
N1113       N  0.68389041  0.59152677  0.82878805    -0.56600
C1114       C  0.62717629  0.59314703  0.90326444     0.27600
C1115       C  0.67565242  0.58076120  0.89283306     0.27600
C1116       C  0.60273699  0.63169699  0.78195405     0.27600
C1117       C  0.64531634  0.60210354  0.77125092     0.27600
C1118       C  0.59084109  0.63204705  0.87965882     0.36200
C1119       C  0.58347641  0.65073855  0.83290893     0.36200
C1120       C  0.70866875  0.59248592  0.84843285     0.36200
C1121       C  0.69462690  0.59911478  0.80057499     0.36200
C1122       C  0.63642444  0.57111248  0.92556411    -0.21300
C1123       C  0.66735259  0.56320511  0.91890502    -0.21300
C1124       C  0.59770037  0.61746082  0.75294848    -0.21300
C1125       C  0.62416091  0.59830338  0.74656394    -0.21300
C1126       C  0.57564343  0.66083295  0.88325152    -0.22300
C1127       C  0.57156881  0.67294035  0.85393035    -0.22300
C1128       C  0.73609376  0.60033652  0.83285654    -0.22300
C1129       C  0.72711294  0.60479066  0.80217355    -0.22300
C1130       C  0.60029753  0.61233695  0.90472378    -0.17700
C1131       C  0.70581289  0.58263949  0.87924715    -0.17700
C1132       C  0.67716270  0.58978455  0.77432483    -0.17700
C1133       C  0.58164654  0.65207035  0.79957605    -0.17700
H1134       H  0.62286770  0.56300960  0.94544143     0.15200
H1135       H  0.68225616  0.54728765  0.93221423     0.15200
H1136       H  0.57683791  0.61974568  0.73836142     0.15200
H1137       H  0.62776097  0.58412330  0.72574009     0.15200
H1138       H  0.56939230  0.67270684  0.90484738     0.13500
H1139       H  0.56208093  0.69620556  0.84955182     0.13500
H1140       H  0.75987773  0.60159079  0.84230159     0.13500
H1141       H  0.74298389  0.60970339  0.78301442     0.13500
H1142       H  0.65142043  0.61647515  0.86667597     0.26800
H1143       H  0.64245120  0.63086266  0.81276394     0.26800
N1144       N  0.86530092  0.57062492  0.17351298    -0.36000
N1145       N  0.90930059  0.62306679  0.18721987    -0.56600
N1146       N  0.95490481  0.60958383  0.13828953    -0.36000
N1147       N  0.91047860  0.55953937  0.12195626    -0.56600
C1148       C  0.84706252  0.59293066  0.18688796     0.27600
C1149       C  0.84791026  0.55687547  0.15082238     0.27600
C1150       C  0.96247438  0.64021676  0.14627624     0.27600
C1151       C  0.96317263  0.60304195  0.10789921     0.27600
C1152       C  0.89100323  0.61879314  0.21258462     0.36200
C1153       C  0.93525275  0.63850339  0.19721850     0.36200
C1154       C  0.89301509  0.53304635  0.12537259     0.36200
C1155       C  0.93686851  0.55080719  0.10676664     0.36200
C1156       C  0.81693824  0.59224885  0.17386539    -0.21300
C1157       C  0.81745724  0.56918737  0.15085681    -0.21300
C1158       C  0.97726574  0.65339900  0.12035395    -0.21300
C1159       C  0.97769502  0.63020010  0.09639616    -0.21300
C1160       C  0.90533758  0.63145209  0.23895449    -0.22300
C1161       C  0.93386280  0.64326955  0.22940100    -0.22300
C1162       C  0.90832653  0.50721405  0.11248521    -0.22300
C1163       C  0.93648683  0.51834815  0.10111285    -0.22300
C1164       C  0.85850968  0.61469605  0.20906265    -0.17700
C1165       C  0.86037483  0.53506071  0.12934520    -0.17700
C1166       C  0.95675126  0.57284898  0.09189559    -0.17700
C1167       C  0.95517610  0.65492962  0.17658385    -0.17700
H1168       H  0.79719154  0.60752687  0.17947723     0.15200
H1169       H  0.79816982  0.56315980  0.13516984     0.15200
H1170       H  0.98626787  0.67733500  0.11857644     0.15200
H1171       H  0.98708775  0.63328271  0.07308019     0.15200
H1172       H  0.89508446  0.63463752  0.26187988     0.13500
H1173       H  0.95028648  0.65654813  0.24390119     0.13500
H1174       H  0.89903745  0.48349477  0.10938986     0.13500
H1175       H  0.95354781  0.50464245  0.08796435     0.13500
H1176       H  0.88899088  0.56585327  0.17875961     0.26800
H1177       H  0.94467469  0.59330551  0.15344900     0.26800
N1178       N  0.66693056  0.86218207  0.09733444    -0.36000
N1179       N  0.68991325  0.91240645  0.13733555    -0.56600
N1180       N  0.63015904  0.94921945  0.12450727    -0.36000
N1181       N  0.61073664  0.89855437  0.08135964    -0.56600
C1182       C  0.69605681  0.85085215  0.10357424     0.27600
C1183       C  0.65343890  0.84244797  0.07643895     0.27600
C1184       C  0.64792673  0.97045320  0.14141222     0.27600
C1185       C  0.60845088  0.96495024  0.10615481     0.27600
C1186       C  0.71007264  0.88885820  0.14569740     0.36200
C1187       C  0.69001745  0.93306390  0.16153061     0.36200
C1188       C  0.60111652  0.86932567  0.07250392     0.36200
C1189       C  0.58477561  0.91714517  0.08076296     0.36200
C1190       C  0.70156396  0.82390236  0.08580498    -0.21300
C1191       C  0.67451219  0.81852972  0.06859636    -0.21300
C1192       C  0.63649271  0.00048795  0.13455190    -0.21300
C1193       C  0.61216951  0.99708781  0.11225055    -0.21300
C1194       C  0.72382902  0.89521604  0.17447145    -0.22300
C1195       C  0.71095902  0.92273465  0.18464444    -0.22300
C1196       C  0.56894029  0.86941255  0.06597570    -0.22300
C1197       C  0.55867066  0.89981479  0.07082720    -0.22300
C1198       C  0.71443263  0.86005192  0.12947063    -0.17700
C1199       C  0.62125954  0.84302342  0.06812646    -0.17700
C1200       C  0.58516092  0.95027087  0.08516961    -0.17700
C1201       C  0.67398707  0.96257659  0.16251795    -0.17700
H1202       H  0.72202991  0.80853227  0.08691381     0.15200
H1203       H  0.67017616  0.79831381  0.05351856     0.15200
H1204       H  0.64514876  0.02264285  0.14413199     0.15200
H1205       H  0.59853202  0.01613645  0.10202302     0.15200
H1206       H  0.74066750  0.88102682  0.18742372     0.13500
H1207       H  0.71665211  0.93392695  0.20678133     0.13500
H1208       H  0.55453400  0.84985026  0.05770955     0.13500
H1209       H  0.53477233  0.90830127  0.06722705     0.13500
H1210       H  0.65524373  0.87976989  0.10953899     0.26800
H1211       H  0.63257393  0.92483489  0.12626313     0.26800
O1212       O  0.71507920  0.46750936  0.66871841    -0.77900
C1213       C  0.77262166  0.55259632  0.66747121     0.83200
O1214       O  0.80751651  0.43076112  0.74077991    -0.79000
O1215       O  0.79917691  0.54112332  0.77327170    -0.80500
O1216       O  0.68039804  0.53432506  0.75643515    -0.80300
O1217       O  0.67682137  0.47143261  0.70442620    -0.78900
Zn1218     Zn  0.75792423  0.48163957  0.68967382     1.55700
O1219       O  0.72223829  0.56553364  0.75177989    -0.80300
Cd1220     Cd  0.70266942  0.48888392  0.74520876     1.59700
Cd1221     Cd  0.77930109  0.46538229  0.76376873     1.59600
O1222       O  0.70341626  0.45901667  0.78736198    -0.80300
O1223       O  0.74999704  0.49307220  0.73390003    -1.90800
Cd1224     Cd  0.76131498  0.53933719  0.73858733     1.59900
O1225       O  0.75251108  0.44108152  0.79697278    -0.80300
O1226       O  0.77021468  0.56313872  0.69546933    -0.78900
C1227       C  0.80932529  0.42575763  0.71141535     0.83600
C1228       C  0.68569542  0.46549482  0.67614523     0.83300
O1229       O  0.77015005  0.52251122  0.66246507    -0.77900
C1230       C  0.69292221  0.56205912  0.75782721     0.84100
O1231       O  0.79298625  0.44343695  0.69219060    -0.78000
C1232       C  0.72337070  0.44296592  0.80431035     0.84200
C1233       C  0.81618746  0.52264618  0.79087363     0.84500
O1234       O  0.81142548  0.49280571  0.79092369    -0.80400
O1235       O  0.06951595  0.02951954  0.48895814    -0.77900
C1236       C  0.05005853  0.97611288  0.57192854     0.83200
O1237       O  0.99198862  0.94077077  0.44590038    -0.79000
O1238       O  0.94069034  0.96737924  0.54636257    -0.80500
O1239       O  0.97951047  0.07846019  0.53039203    -0.80300
O1240       O  0.03776627  0.06933657  0.47586193    -0.78900
Zn1241     Zn  0.04102076  0.99030258  0.50007088     1.55700
O1242       O  0.97181094  0.04368978  0.56869293    -0.80300
Cd1243     Cd  0.99238983  0.04989448  0.49029438     1.59700
Cd1244     Cd  0.96597206  0.97439969  0.47284629     1.59600
O1245       O  0.95354413  0.05058091  0.45609040    -0.80300
O1246       O  0.99572892  0.00305387  0.50234189    -1.90800
Cd1247     Cd  0.98223577  0.99870066  0.54764163     1.59900
O1248       O  0.93653342  0.00194841  0.44296880    -0.80300
O1249       O  0.02100514  0.98381901  0.57617046    -0.78900
C1250       C  0.02180161  0.93574719  0.44695959     0.83600
C1251       C  0.06586975  0.05793831  0.47891432     0.83300
O1252       O  0.06120748  0.97590226  0.54397911    -0.77900
C1253       C  0.97231005  0.07244326  0.55899202     0.84100
O1254       O  0.03982783  0.95324210  0.46488987    -0.78000
C1255       C  0.93351001  0.03201882  0.44170797     0.84200
C1256       C  0.92319791  0.95085473  0.52713031     0.84500
O1257       O  0.93063413  0.94880256  0.49822634    -0.80400
C1258       C  0.52344800  0.00845762  0.78464891     0.80800
N1259       N  0.51855870  0.98280603  0.76619794    -0.77500
C1260       C  0.49836351  0.98418133  0.74155826     0.83300
N1261       N  0.48381781  0.01185437  0.73474780    -0.77400
C1262       C  0.48831443  0.03756165  0.75331705     0.83400
N1263       N  0.50817440  0.03599356  0.77823122    -0.79100
C1264       C  0.73579678  0.06183608  0.54029277     0.80800
N1265       N  0.72595825  0.03845049  0.55996050    -0.77500
C1266       C  0.69962986  0.02138973  0.55251577     0.83300
N1267       N  0.68385883  0.02762332  0.52564452    -0.77400
C1268       C  0.69353390  0.05067612  0.50616916     0.83400
N1269       N  0.71942872  0.06782911  0.51365777    -0.79100
C1270       C  0.50055583  0.28573390  0.48741939     0.80800
N1271       N  0.48624117  0.27789839  0.51463089    -0.77500
C1272       C  0.46861278  0.25120194  0.51645779     0.83300
N1273       N  0.46535720  0.23214992  0.49089256    -0.77400
C1274       C  0.47905630  0.24020762  0.46329554     0.83400
N1275       N  0.49725235  0.26671046  0.46210780    -0.79100
N1276       N  0.56880825  0.11165943  0.38374999    -0.36000
N1277       N  0.62423877  0.09011838  0.34571595    -0.56600
N1278       N  0.60538695  0.12479243  0.29157041    -0.36000
N1279       N  0.55253002  0.14790237  0.33106135    -0.56600
C1280       C  0.59051904  0.10505170  0.40579206     0.27600
C1281       C  0.54876126  0.13308674  0.39626266     0.27600
C1282       C  0.63479804  0.11506602  0.28264675     0.27600
C1283       C  0.59793194  0.15269995  0.27725212     0.27600
C1284       C  0.62614646  0.07305307  0.37236328     0.36200
C1285       C  0.64222270  0.07474590  0.32434469     0.36200
C1286       C  0.52506936  0.14810288  0.34698296     0.36200
C1287       C  0.54537701  0.15699310  0.30185433     0.36200
C1288       C  0.58357415  0.12142870  0.43317404    -0.21300
C1289       C  0.55711031  0.13936058  0.42705925    -0.21300
C1290       C  0.64600736  0.13679345  0.26096850    -0.21300
C1291       C  0.62308230  0.16072407  0.25798894    -0.21300
C1292       C  0.64537217  0.04692797  0.36809578    -0.22300
C1293       C  0.65536006  0.04779462  0.33782420    -0.22300
C1294       C  0.50038515  0.15733853  0.32811426    -0.22300
C1295       C  0.51296180  0.16227044  0.29909585    -0.22300
C1296       C  0.61570508  0.08385613  0.40170161    -0.17700
C1297       C  0.52409072  0.14761772  0.37958107    -0.17700
C1298       C  0.56835431  0.16940287  0.28159322    -0.17700
C1299       C  0.65065058  0.08714339  0.29462338    -0.17700
H1300       H  0.59644401  0.12091807  0.45511780     0.15200
H1301       H  0.54592327  0.15567506  0.44315724     0.15200
H1302       H  0.66864667  0.13605032  0.24924374     0.15200
H1303       H  0.62470352  0.18140738  0.24318273     0.15200
H1304       H  0.65261943  0.02958283  0.38523787     0.13500
H1305       H  0.67198118  0.03117270  0.32789177     0.13500
H1306       H  0.47667195  0.16248908  0.33561213     0.13500
H1307       H  0.50042992  0.17188898  0.27912338     0.13500
H1308       H  0.56766445  0.10167799  0.36140623     0.26800
H1309       H  0.59048786  0.11228266  0.30640133     0.26800
N1310       N  0.39530974  0.15836055  0.65694308    -0.36000
N1311       N  0.35039291  0.11042925  0.67905552    -0.56600
N1312       N  0.30737850  0.12453801  0.62514239    -0.36000
N1313       N  0.35251579  0.17586663  0.60807358    -0.56600
C1314       C  0.40694261  0.15195025  0.68549335     0.27600
C1315       C  0.40895852  0.18529475  0.64703943     0.27600
C1316       C  0.28907920  0.10616733  0.64425909     0.27600
C1317       C  0.28898560  0.14456395  0.60774763     0.27600
C1318       C  0.37924344  0.10132097  0.68949354     0.36200
C1319       C  0.33490865  0.08345314  0.67135279     0.36200
C1320       C  0.38051512  0.18632726  0.59709332     0.36200
C1321       C  0.33413635  0.17116357  0.58268444     0.36200
C1322       C  0.42796545  0.17560167  0.69450421    -0.21300
C1323       C  0.42938868  0.19678882  0.66985143    -0.21300
C1324       C  0.25769934  0.11430953  0.63838638    -0.21300
C1325       C  0.25766779  0.13844680  0.61560346    -0.21300
C1326       C  0.38217537  0.06868144  0.68838884    -0.22300
C1327       C  0.35436231  0.05740046  0.67615296    -0.22300
C1328       C  0.37984408  0.18837163  0.56472566    -0.22300
C1329       C  0.35037031  0.17882142  0.55558560    -0.22300
C1330       C  0.40306085  0.12236449  0.69979904    -0.17700
C1331       C  0.40569451  0.19639585  0.61632718    -0.17700
C1332       C  0.30144687  0.16643462  0.58452677    -0.17700
C1333       C  0.30195505  0.08236958  0.66546733    -0.17700
H1334       H  0.44214385  0.17637918  0.71565870     0.15200
H1335       H  0.44460664  0.21736527  0.66829943     0.15200
H1336       H  0.23697896  0.10416559  0.64927546     0.15200
H1337       H  0.23697291  0.14988401  0.60584343     0.15200
H1338       H  0.40253208  0.05456990  0.69487491     0.13500
H1339       H  0.34886973  0.03271379  0.67175561     0.13500
H1340       H  0.39836992  0.19637859  0.54924482     0.13500
H1341       H  0.34173585  0.17826517  0.53172561     0.13500
H1342       H  0.38159490  0.14305276  0.64337927     0.26800
H1343       H  0.33189857  0.12273685  0.62337182     0.26800
C1344       C  0.71795912  0.21566655  0.74143369     0.80800
N1345       N  0.69252751  0.23026055  0.72829032    -0.77500
C1346       C  0.69636006  0.24838301  0.70245137     0.83300
N1347       N  0.72550070  0.25209378  0.68980455    -0.77400
C1348       C  0.75093863  0.23795791  0.70282719     0.83400
N1349       N  0.74692908  0.21956122  0.72846544    -0.79100
N1350       N  0.61998678  0.35695220  0.58508829    -0.36000
N1351       N  0.64227278  0.39708528  0.63852543    -0.56600
N1352       N  0.63529732  0.45323443  0.60147775    -0.36000
N1353       N  0.61120780  0.41177731  0.55084389    -0.56600
C1354       C  0.61356115  0.33915615  0.61031046     0.27600
C1355       C  0.60067575  0.34681578  0.56182808     0.27600
C1356       C  0.64337422  0.46543149  0.63005285     0.27600
C1357       C  0.61331734  0.47223166  0.58716565     0.27600
C1358       C  0.64813843  0.36715645  0.64814183     0.36200
C1359       C  0.66291008  0.41595778  0.65428561     0.36200
C1360       C  0.60959570  0.39122942  0.52686340     0.36200
C1361       C  0.61153927  0.44088418  0.53873279     0.36200
C1362       C  0.59045796  0.31694564  0.60311715    -0.21300
C1363       C  0.58215787  0.32184663  0.57237957    -0.21300
C1364       C  0.62718156  0.49380972  0.63364987    -0.21300
C1365       C  0.60766587  0.49762295  0.60714802    -0.21300
C1366       C  0.67236783  0.36703193  0.67014572    -0.22300
C1367       C  0.68167386  0.39786286  0.67407947    -0.22300
C1368       C  0.60952515  0.40722055  0.49864259    -0.22300
C1369       C  0.61092519  0.43895078  0.50618425    -0.22300
C1370       C  0.63095720  0.34011848  0.63823963    -0.17700
C1371       C  0.59932818  0.36015445  0.53160053    -0.17700
C1372       C  0.59968034  0.46624442  0.55635866    -0.17700
C1373       C  0.66328341  0.44948265  0.65283992    -0.17700
H1374       H  0.58093107  0.29891367  0.61839326     0.15200
H1375       H  0.56443371  0.30861807  0.55944388     0.15200
H1376       H  0.62798289  0.50926404  0.65389805     0.15200
H1377       H  0.59160272  0.51710539  0.60296664     0.15200
H1378       H  0.68255134  0.34688596  0.68207861     0.13500
H1379       H  0.69995321  0.40594938  0.69004821     0.13500
H1380       H  0.60568019  0.39730467  0.47553041     0.13500
H1381       H  0.60790190  0.45837057  0.48994306     0.13500
H1382       H  0.63781523  0.37399411  0.58359596     0.26800
H1383       H  0.64486475  0.43250524  0.59223509     0.26800
N1384       N  0.59703030  0.89527489  0.63376496    -0.36000
N1385       N  0.64589016  0.85398663  0.60757079    -0.56600
N1386       N  0.60868761  0.79777100  0.62461917    -0.36000
N1387       N  0.56382990  0.84104134  0.65484433    -0.56600
C1388       C  0.62209091  0.91498167  0.63335308     0.27600
C1389       C  0.57560245  0.90802378  0.65340318     0.27600
C1390       C  0.63502306  0.78433428  0.61169653     0.27600
C1391       C  0.59591640  0.77821622  0.64699838     0.27600
C1392       C  0.65581494  0.88309144  0.59826525     0.36200
C1393       C  0.65803177  0.83300769  0.58677393     0.36200
C1394       C  0.54020085  0.86238518  0.65542896     0.36200
C1395       C  0.55012036  0.81249653  0.65733803     0.36200
C1396       C  0.61656540  0.94076785  0.65278604    -0.21300
C1397       C  0.58710312  0.93632485  0.66560200    -0.21300
C1398       C  0.63860565  0.75469878  0.62538438    -0.21300
C1399       C  0.61461654  0.75118651  0.64794564    -0.21300
C1400       C  0.67472509  0.88061112  0.57208426    -0.22300
C1401       C  0.67594251  0.84915237  0.56465783    -0.22300
C1402       C  0.51119612  0.84755234  0.65834700    -0.22300
C1403       C  0.51750885  0.81572784  0.65960049    -0.22300
C1404       C  0.64783629  0.91206892  0.61286868    -0.17700
C1405       C  0.54564173  0.89479462  0.65942226    -0.17700
C1406       C  0.56725027  0.78504430  0.66488915    -0.17700
C1407       C  0.65537676  0.79938615  0.58848451    -0.17700
H1408       H  0.63193066  0.96094983  0.65674260     0.15200
H1409       H  0.57551548  0.95219611  0.68185180     0.15200
H1410       H  0.65716927  0.73778889  0.62046581     0.15200
H1411       H  0.61109763  0.73079557  0.66281537     0.15200
H1412       H  0.68602932  0.89949956  0.55919769     0.13500
H1413       H  0.68887674  0.83945169  0.54506090     0.13500
H1414       H  0.48830226  0.85865153  0.66110431     0.13500
H1415       H  0.50044881  0.79708315  0.66363004     0.13500
H1416       H  0.59369494  0.87535056  0.61969832     0.26800
H1417       H  0.59960470  0.81946036  0.61754592     0.26800
N1418       N  0.86651468  0.17771849  0.59453607    -0.36000
N1419       N  0.90426475  0.12409935  0.57404647    -0.56600
N1420       N  0.95411728  0.14164842  0.61826864    -0.36000
N1421       N  0.91600244  0.19955150  0.63509823    -0.56600
C1422       C  0.84790575  0.16548139  0.57204880     0.27600
C1423       C  0.85528456  0.20669644  0.60141613     0.27600
C1424       C  0.97017929  0.11976813  0.60064604     0.27600
C1425       C  0.97444192  0.15698704  0.63798037     0.27600
C1426       C  0.87470023  0.11377617  0.56736519     0.36200
C1427       C  0.92283472  0.09813150  0.57353519     0.36200
C1428       C  0.89229716  0.21907822  0.64442235     0.36200
C1429       C  0.93654102  0.19842562  0.65933845     0.36200
C1430       C  0.82473327  0.18711527  0.56375547    -0.21300
C1431       C  0.82942157  0.21335696  0.58246151    -0.21300
C1432       C  0.00171304  0.12095467  0.60986058    -0.21300
C1433       C  0.00432523  0.14403622  0.63347843    -0.21300
C1434       C  0.87457319  0.08136390  0.56229721    -0.22300
C1435       C  0.90519222  0.07167489  0.56569656    -0.22300
C1436       C  0.89849445  0.23157779  0.67370484    -0.22300
C1437       C  0.92604902  0.21835042  0.68335942    -0.22300
C1438       C  0.84809944  0.13341241  0.56384966    -0.17700
C1439       C  0.86296750  0.22287858  0.62906394    -0.17700
C1440       C  0.96564573  0.18149465  0.66017354    -0.17700
C1441       C  0.95580427  0.09798304  0.57830824    -0.17700
H1442       H  0.80528538  0.18345211  0.54756262     0.15200
H1443       H  0.81415845  0.23388118  0.58365294     0.15200
H1444       H  0.02068209  0.10620135  0.60114584     0.15200
H1445       H  0.02577544  0.15047692  0.64590083     0.15200
H1446       H  0.85472268  0.06638150  0.55598225     0.13500
H1447       H  0.91366693  0.04781710  0.56303600     0.13500
H1448       H  0.88391628  0.24756110  0.68728670     0.13500
H1449       H  0.93685707  0.22293086  0.70593650     0.13500
H1450       H  0.88265028  0.16489255  0.60755979     0.26800
H1451       H  0.93001170  0.14547239  0.61807861     0.26800
N1452       N  0.67174643  0.07654838  0.85339488    -0.36000
N1453       N  0.68588519  0.13015122  0.89428105    -0.56600
N1454       N  0.65000314  0.10548824  0.94811072    -0.36000
N1455       N  0.63309577  0.05477464  0.90616066    -0.56600
C1456       C  0.67879714  0.09974631  0.83306263     0.27600
C1457       C  0.64933345  0.05837019  0.83984758     0.27600
C1458       C  0.65473488  0.13639022  0.95616586     0.27600
C1459       C  0.62233068  0.09461981  0.96078702     0.27600
C1460       C  0.70728937  0.13213610  0.87086676     0.36200
C1461       C  0.69879888  0.14544029  0.91897592     0.36200
C1462       C  0.63728706  0.02972461  0.88715336     0.36200
C1463       C  0.62580559  0.04319960  0.93446377     0.36200
C1464       C  0.66181158  0.09554188  0.80550135    -0.21300
C1465       C  0.64277552  0.06940279  0.80995361    -0.21300
C1466       C  0.62995363  0.14538383  0.97553885    -0.21300
C1467       C  0.60946371  0.11923720  0.97823286    -0.21300
C1468       C  0.73393511  0.14842278  0.88044416    -0.22300
C1469       C  0.72900903  0.15599664  0.91123777    -0.22300
C1470       C  0.63269656  0.00177729  0.90306314    -0.22300
C1471       C  0.62632267  0.01016898  0.93340875    -0.22300
C1472       C  0.69988103  0.12453484  0.83980022    -0.17700
C1473       C  0.63432640  0.03301141  0.85495820    -0.17700
C1474       C  0.61050557  0.06251185  0.95676828    -0.17700
C1475       C  0.68112129  0.15538942  0.94548054    -0.17700
H1476       H  0.66235138  0.11020144  0.78477726     0.15200
H1477       H  0.62573357  0.06004457  0.79334727     0.15200
H1478       H  0.62655265  0.16848551  0.98604353     0.15200
H1479       H  0.58773203  0.11852105  0.99152000     0.15200
H1480       H  0.75432643  0.15476655  0.86653873     0.13500
H1481       H  0.74509044  0.16952936  0.92575117     0.13500
H1482       H  0.63219407  0.97806175  0.89333914     0.13500
H1483       H  0.62147153  0.99345319  0.95186959     0.13500
H1484       H  0.68149646  0.07350089  0.87566304     0.26800
H1485       H  0.66580455  0.09216977  0.93483339     0.26800
C1486       C  0.97146021  0.73398687  0.48928601     0.80800
N1487       N  0.97292015  0.76074249  0.50671626    -0.77500
C1488       C  0.99568893  0.78261838  0.50161013     0.83300
N1489       N  0.01751182  0.77715384  0.47891936    -0.77400
C1490       C  0.01615002  0.75044566  0.46116338     0.83400
N1491       N  0.99303425  0.72896968  0.46669099    -0.79100
N1492       N  0.16552314  0.66971397  0.38285543    -0.36000
N1493       N  0.11400146  0.68823065  0.33961979    -0.56600
N1494       N  0.12879363  0.64215426  0.29073583    -0.36000
N1495       N  0.17519389  0.61871464  0.33651274    -0.56600
C1496       C  0.14478422  0.68409786  0.40190003     0.27600
C1497       C  0.17951261  0.64656068  0.39944819     0.27600
C1498       C  0.09962754  0.65222727  0.28098247     0.27600
C1499       C  0.13531976  0.61255110  0.27908716     0.27600
C1500       C  0.11805060  0.71253365  0.35998481     0.36200
C1501       C  0.09898297  0.70050536  0.31449117     0.36200
C1502       C  0.20172215  0.62152086  0.35393240     0.36200
C1503       C  0.18486538  0.60830233  0.30839640     0.36200
C1504       C  0.14659929  0.67109704  0.43165155    -0.21300
C1505       C  0.16879257  0.64709634  0.43008053    -0.21300
C1506       C  0.08752599  0.62869831  0.26140665    -0.21300
C1507       C  0.10981387  0.60383415  0.26029570    -0.21300
C1508       C  0.10546410  0.74009147  0.34805735    -0.22300
C1509       C  0.09402229  0.73267563  0.31896989    -0.22300
C1510       C  0.22813623  0.61277321  0.33730247    -0.22300
C1511       C  0.21741464  0.60531508  0.30783519    -0.22300
C1512       C  0.12396530  0.70780867  0.39186303    -0.17700
C1513       C  0.20062189  0.62479637  0.38623298    -0.17700
C1514       C  0.16421821  0.59498134  0.28621037    -0.17700
C1515       C  0.08501505  0.68217229  0.29026134    -0.17700
H1516       H  0.13281213  0.67760353  0.45197222     0.15200
H1517       H  0.17549327  0.63134463  0.44891063     0.15200
H1518       H  0.06483924  0.62907715  0.24956802     0.15200
H1519       H  0.10728699  0.58186037  0.24740853     0.15200
H1520       H  0.10300735  0.76253379  0.36006690     0.13500
H1521       H  0.08168727  0.74865380  0.30350032     0.13500
H1522       H  0.25212473  0.61121529  0.34606606     0.13500
H1523       H  0.23110481  0.59707255  0.28816729     0.13500
H1524       H  0.16946141  0.67502405  0.35932838     0.26800
H1525       H  0.14418208  0.65543296  0.30461760     0.26800
C1526       C  0.26720047  0.71224381  0.72193482     0.80800
N1527       N  0.25079998  0.71342139  0.74914717    -0.77500
C1528       C  0.22377843  0.73025342  0.75159832     0.83300
N1529       N  0.21308985  0.74606776  0.72640716    -0.77400
C1530       C  0.22881013  0.74544265  0.69893508     0.83400
N1531       N  0.25599217  0.72831566  0.69642243    -0.79100
C1532       C  0.20689282  0.48961417  0.50621014     0.80800
N1533       N  0.20547599  0.50633904  0.47917050    -0.77500
C1534       C  0.23059276  0.52458428  0.47049085     0.83300
N1535       N  0.25626668  0.52661252  0.48961050    -0.77400
C1536       C  0.25773925  0.50950505  0.51628796     0.83400
N1537       N  0.23309958  0.49122777  0.52436608    -0.79100
N1538       N  0.35785890  0.57252424  0.66131778    -0.36000
N1539       N  0.39987602  0.56581839  0.60673663    -0.56600
N1540       N  0.44738925  0.61094745  0.63345961    -0.36000
N1541       N  0.40425404  0.61824579  0.68656397    -0.56600
C1542       C  0.33714408  0.55893672  0.64130312     0.27600
C1543       C  0.34060792  0.58612217  0.68422867     0.27600
C1544       C  0.46472065  0.59829131  0.60944474     0.27600
C1545       C  0.46593409  0.62941822  0.65248291     0.27600
C1546       C  0.37129995  0.55922233  0.59398689     0.36200
C1547       C  0.41831158  0.57544623  0.58275183     0.36200
C1548       C  0.38483300  0.61182247  0.71064896     0.36200
C1549       C  0.43114115  0.62935926  0.69926892     0.36200
C1550       C  0.30667026  0.56139329  0.65324733    -0.21300
C1551       C  0.30884587  0.57931365  0.68006714    -0.21300
C1552       C  0.49551517  0.60940799  0.61305570    -0.21300
C1553       C  0.49610742  0.62942703  0.63954987    -0.21300
C1554       C  0.37195249  0.56435474  0.56186250    -0.22300
C1555       C  0.40127212  0.57560594  0.55502456    -0.22300
C1556       C  0.39886407  0.61938000  0.73888049    -0.22300
C1557       C  0.42868985  0.62974254  0.73179707    -0.22300
C1558       C  0.34405040  0.54929356  0.61044386    -0.17700
C1559       C  0.35251529  0.60748827  0.70659755    -0.17700
C1560       C  0.45574505  0.64364231  0.68202335    -0.17700
C1561       C  0.45151809  0.57856212  0.58444019    -0.17700
H1562       H  0.28479891  0.55367358  0.64234637     0.15200
H1563       H  0.28927714  0.58759109  0.69416817     0.15200
H1564       H  0.51537415  0.60430626  0.59797058     0.15200
H1565       H  0.51677965  0.64136195  0.64888806     0.15200
H1566       H  0.35319435  0.56102839  0.54487975     0.13500
H1567       H  0.40964695  0.58200413  0.53196424     0.13500
H1568       H  0.38829135  0.61855698  0.76189874     0.13500
H1569       H  0.44612179  0.63803956  0.74858690     0.13500
H1570       H  0.38212918  0.57448409  0.65834367     0.26800
H1571       H  0.42336889  0.60743873  0.63649014     0.26800
C1572       C  0.01172702  0.54865270  0.75331526     0.80800
N1573       N  0.99231082  0.55390890  0.72837743    -0.77500
C1574       C  0.99093675  0.53260593  0.70445474     0.83300
N1575       N  0.00885335  0.50626272  0.70554612    -0.77400
C1576       C  0.02865265  0.50117616  0.72981372     0.83400
N1577       N  0.03048723  0.52244800  0.75352278    -0.79100
N1578       N  0.11555064  0.39338955  0.62350374    -0.36000
N1579       N  0.14474758  0.34717460  0.58128440    -0.56600
N1580       N  0.13936234  0.29901796  0.62996887    -0.36000
N1581       N  0.10653578  0.34634646  0.66902031    -0.56600
C1582       C  0.11206095  0.40780004  0.59570808     0.27600
C1583       C  0.09656971  0.40844911  0.64397393     0.27600
C1584       C  0.15088324  0.28181074  0.60539767     0.27600
C1585       C  0.12080756  0.28025641  0.64857608     0.27600
C1586       C  0.15050073  0.37501060  0.56663772     0.36200
C1587       C  0.16782136  0.32707959  0.57195354     0.36200
C1588       C  0.10394823  0.37197464  0.68758944     0.36200
C1589       C  0.11012686  0.32151998  0.68809973     0.36200
C1590       C  0.09041059  0.43235552  0.59833816    -0.21300
C1591       C  0.08058105  0.43279162  0.62903679    -0.21300
C1592       C  0.14045259  0.25081851  0.60903441    -0.21300
C1593       C  0.12101430  0.25000367  0.63567004    -0.21300
C1594       C  0.17699270  0.37243284  0.54777412    -0.22300
C1595       C  0.18790593  0.34222011  0.55108299    -0.22300
C1596       C  0.10573754  0.36361203  0.71881013    -0.22300
C1597       C  0.10941243  0.33137775  0.71910856    -0.22300
C1598       C  0.13228498  0.40288117  0.57018770    -0.17700
C1599       C  0.09553388  0.40173580  0.67615977    -0.17700
C1600       C  0.10596249  0.29043148  0.67760298    -0.17700
C1601       C  0.16981574  0.29461504  0.58006583    -0.17700
H1602       H  0.08371852  0.44912926  0.58038437     0.15200
H1603       H  0.06428809  0.44957839  0.63934638     0.15200
H1604       H  0.14547362  0.23107158  0.59362825     0.15200
H1605       H  0.10916022  0.22931864  0.64488990     0.15200
H1606       H  0.18790044  0.39048325  0.53349532     0.13500
H1607       H  0.20843818  0.33260422  0.53935520     0.13500
H1608       H  0.10324145  0.37885666  0.73907492     0.13500
H1609       H  0.11052366  0.31674537  0.73969451     0.13500
H1610       H  0.13241793  0.37631488  0.62896759     0.26800
H1611       H  0.14482746  0.32271259  0.63408302     0.26800
N1612       N  0.88499468  0.59688178  0.57669070    -0.36000
N1613       N  0.83919842  0.64556652  0.56132536    -0.56600
N1614       N  0.79458517  0.61963879  0.60683956    -0.36000
N1615       N  0.84183509  0.56746798  0.61931430    -0.56600
C1616       C  0.89851291  0.60941885  0.55123043     0.27600
C1617       C  0.90045717  0.56993494  0.58311538     0.27600
C1618       C  0.77540801  0.63975627  0.58992374     0.27600
C1619       C  0.77689462  0.59782936  0.62294812     0.27600
C1620       C  0.86680001  0.65831715  0.55164005     0.36200
C1621       C  0.81917134  0.67006873  0.56567784     0.36200
C1622       C  0.86995451  0.55603053  0.62963595     0.36200
C1623       C  0.82232435  0.56605742  0.64414343     0.36200
C1624       C  0.92257409  0.58981170  0.54068675    -0.21300
C1625       C  0.92395188  0.56472141  0.56122009    -0.21300
C1626       C  0.74439735  0.63067989  0.59594803    -0.21300
C1627       C  0.74531094  0.60471592  0.61666408    -0.21300
C1628       C  0.86433524  0.69103731  0.54987586    -0.22300
C1629       C  0.83410261  0.69846240  0.55857313    -0.22300
C1630       C  0.86806838  0.54690292  0.66064545    -0.22300
C1631       C  0.83800790  0.55311285  0.66978251    -0.22300
C1632       C  0.89309738  0.64050899  0.54156578    -0.17700
C1633       C  0.89775349  0.55444713  0.61170753    -0.17700
C1634       C  0.78974077  0.57309864  0.64350256    -0.17700
C1635       C  0.78646490  0.66642855  0.57077653    -0.17700
H1636       H  0.93876830  0.59427713  0.52163415     0.15200
H1637       H  0.94137069  0.54593892  0.56129497     0.15200
H1638       H  0.72326636  0.64177101  0.58672901     0.15200
H1639       H  0.72497895  0.59234181  0.62594111     0.15200
H1640       H  0.88191124  0.70776465  0.54181916     0.13500
H1641       H  0.82404821  0.72201132  0.55858842     0.13500
H1642       H  0.88642670  0.53717033  0.67546516     0.13500
H1643       H  0.82881504  0.54865259  0.69292342     0.13500
H1644       H  0.86912127  0.60826191  0.59140202     0.26800
H1645       H  0.81907444  0.62125782  0.60839262     0.26800
N1646       N  0.10591273  0.85146399  0.62140518    -0.36000
N1647       N  0.06813963  0.90505342  0.60865155    -0.56600
N1648       N  0.11573299  0.94963912  0.63264648    -0.36000
N1649       N  0.15741131  0.89520423  0.64135966    -0.56600
C1650       C  0.08318690  0.83923915  0.60275147     0.27600
C1651       C  0.13215820  0.83408770  0.61681170     0.27600
C1652       C  0.09949376  0.96796912  0.61152028     0.27600
C1653       C  0.14383963  0.96360995  0.64077052     0.27600
C1654       C  0.04586573  0.88236535  0.60999525     0.36200
C1655       C  0.05305481  0.93290369  0.60967459     0.36200
C1656       C  0.16567841  0.86580507  0.65119953     0.36200
C1657       C  0.16697005  0.91540615  0.66423054     0.36200
C1658       C  0.09495312  0.81323357  0.58656394    -0.21300
C1659       C  0.12611285  0.80999292  0.59553596    -0.21300
C1660       C  0.11768738  0.99495141  0.60654242    -0.21300
C1661       C  0.14511178  0.99253811  0.62534512    -0.21300
C1662       C  0.01606674  0.89562946  0.61200939    -0.22300
C1663       C  0.02058855  0.92784661  0.61211793    -0.22300
C1664       C  0.18016975  0.86702957  0.68009587    -0.22300
C1665       C  0.17993779  0.89813450  0.68876638    -0.22300
C1666       C  0.05232641  0.85153405  0.60022301    -0.17700
C1667       C  0.15985373  0.83764766  0.63450482    -0.17700
C1668       C  0.16739001  0.94912519  0.66130276    -0.17700
C1669       C  0.06797830  0.96059939  0.59919252    -0.17700
H1670       H  0.08241875  0.79812004  0.57015946     0.15200
H1671       H  0.14230754  0.79174694  0.58782390     0.15200
H1672       H  0.11154224  0.01469762  0.59162852     0.15200
H1673       H  0.16411165  0.00970762  0.62669287     0.15200
H1674       H  0.99352626  0.88341594  0.61130447     0.13500
H1675       H  0.00186359  0.94526389  0.61247254     0.13500
H1676       H  0.18855401  0.84741461  0.69411854     0.13500
H1677       H  0.18793565  0.90680090  0.71115698     0.13500
H1678       H  0.10331726  0.86984153  0.63756165     0.26800
H1679       H  0.10784658  0.92834795  0.64205309     0.26800
N1680       N  0.08306686  0.67590499  0.85545355    -0.36000
N1681       N  0.13272181  0.68955443  0.90287876    -0.56600
N1682       N  0.10350939  0.65027985  0.95047488    -0.36000
N1683       N  0.05728378  0.63277471  0.90120461    -0.56600
C1684       C  0.10728641  0.68515920  0.83720767     0.27600
C1685       C  0.06408188  0.65753471  0.83747001     0.27600
C1686       C  0.13137787  0.65795143  0.96508152     0.27600
C1687       C  0.09186788  0.62241525  0.96213759     0.27600
C1688       C  0.14072794  0.70875602  0.87884883     0.36200
C1689       C  0.14916443  0.70036159  0.92796536     0.36200
C1690       C  0.03307588  0.63629898  0.88069194     0.36200
C1691       C  0.04456210  0.62066844  0.92744805     0.36200
C1692       C  0.10293047  0.67396591  0.80695345    -0.21300
C1693       C  0.07560356  0.65641632  0.80710491    -0.21300
C1694       C  0.13715104  0.63490903  0.98751811    -0.21300
C1695       C  0.11270507  0.61239480  0.98533976    -0.21300
C1696       C  0.16209656  0.73157743  0.88834779    -0.22300
C1697       C  0.16756284  0.72636078  0.91920821    -0.22300
C1698       C  0.00496062  0.62636272  0.89368112    -0.22300
C1699       C  0.01208621  0.61703954  0.92358235    -0.22300
C1700       C  0.13339964  0.70306019  0.84733927    -0.17700
C1701       C  0.03771690  0.64056872  0.84852853    -0.17700
C1702       C  0.06259042  0.60718604  0.95201184    -0.17700
C1703       C  0.15114730  0.68508941  0.95755361    -0.17700
H1704       H  0.11831507  0.67725302  0.78702996     0.15200
H1705       H  0.06614276  0.64348709  0.78727399     0.15200
H1706       H  0.15736350  0.63381847  0.00311883     0.15200
H1707       H  0.11063130  0.59114718  0.99928400     0.15200
H1708       H  0.17361451  0.74933200  0.87410769     0.13500
H1709       H  0.18470918  0.73956603  0.93284734     0.13500
H1710       H  0.98223752  0.62444923  0.88205522     0.13500
H1711       H  0.99565172  0.60697500  0.94012889     0.13500
H1712       H  0.07988747  0.68153016  0.87899686     0.26800
H1713       H  0.09244252  0.66411529  0.93358939     0.26800
C1714       C  0.76762755  0.24789708  0.28564779     0.80800
N1715       N  0.78369036  0.24691158  0.25822556    -0.77500
C1716       C  0.77541139  0.26626014  0.23441012     0.83300
N1717       N  0.75123558  0.28677614  0.23825486    -0.77400
C1718       C  0.73524541  0.28823264  0.26549217     0.83400
N1719       N  0.74361207  0.26883917  0.28938263    -0.79100
N1720       N  0.64062231  0.42572729  0.32884416    -0.36000
N1721       N  0.59162512  0.38267330  0.30238495    -0.56600
N1722       N  0.54487136  0.40018140  0.34810730    -0.36000
N1723       N  0.59427057  0.44093064  0.37636987    -0.56600
C1724       C  0.65789925  0.40511479  0.31210097     0.27600
C1725       C  0.65950291  0.43604361  0.35224541     0.27600
C1726       C  0.53168951  0.37297292  0.33592015     0.27600
C1727       C  0.53194456  0.40688545  0.37670693     0.27600
C1728       C  0.61405888  0.38468088  0.28010676     0.36200
C1729       C  0.56550814  0.37071214  0.28838396     0.36200
C1730       C  0.61791735  0.46161438  0.38303883     0.36200
C1731       C  0.56900151  0.45103892  0.39277679     0.36200
C1732       C  0.68852084  0.40352020  0.32398521    -0.21300
C1733       C  0.68953881  0.42330510  0.34945923    -0.21300
C1734       C  0.50921576  0.36257314  0.35720182    -0.21300
C1735       C  0.50921249  0.38387605  0.38254463    -0.21300
C1736       C  0.60261778  0.37404139  0.25175103    -0.22300
C1737       C  0.57180980  0.36556743  0.25667699    -0.22300
C1738       C  0.60789461  0.48487673  0.40340913    -0.22300
C1739       C  0.57717269  0.47835907  0.40964477    -0.22300
C1740       C  0.64621686  0.38686311  0.28718951    -0.17700
C1741       C  0.64980836  0.45619491  0.37625802    -0.17700
C1742       C  0.54041257  0.43367444  0.39666957    -0.17700
C1743       C  0.53919796  0.35894143  0.30551050    -0.17700
H1744       H  0.70790361  0.38908766  0.31562563     0.15200
H1745       H  0.70973602  0.42712146  0.36468949     0.15200
H1746       H  0.49422787  0.34189932  0.35473295     0.15200
H1747       H  0.49444938  0.38228704  0.40311822     0.15200
H1748       H  0.61575979  0.37099563  0.23024610     0.13500
H1749       H  0.55693362  0.35574865  0.23853418     0.13500
H1750       H  0.62171419  0.50362510  0.41413023     0.13500
H1751       H  0.56352074  0.49161136  0.42650421     0.13500
H1752       H  0.61713204  0.43199156  0.32468144     0.26800
H1753       H  0.56132427  0.41454347  0.33697061     0.26800
C1754       C  0.72153488  0.50278043  0.48061274     0.80800
N1755       N  0.73228214  0.48197681  0.50231346    -0.77500
C1756       C  0.75115256  0.49185945  0.52612631     0.83300
N1757       N  0.75957543  0.52269926  0.52782675    -0.77400
C1758       C  0.74966127  0.54373595  0.50615934     0.83400
N1759       N  0.73062272  0.53356190  0.48250113    -0.79100
C1760       C  0.95373943  0.45830795  0.25950146     0.80800
N1761       N  0.93954031  0.48351517  0.27299624    -0.77500
C1762       C  0.94710922  0.49210918  0.30272309     0.83300
N1763       N  0.96916616  0.47543272  0.31891401    -0.77400
C1764       C  0.98282641  0.44986608  0.30560086     0.83400
N1765       N  0.97514893  0.44159219  0.27605439    -0.79100
C1766       C  0.00158116  0.28314289  0.51547968     0.80800
N1767       N  0.03043294  0.27760334  0.50274903    -0.77500
C1768       C  0.03717136  0.24837225  0.49084179     0.83300
N1769       N  0.01495903  0.22521848  0.49196662    -0.77400
C1770       C  0.98614549  0.23065664  0.50465742     0.83400
N1771       N  0.97966499  0.25975267  0.51604126    -0.79100
N1772       N  0.10733457  0.32601838  0.36253098    -0.36000
N1773       N  0.14473544  0.38266795  0.33977001    -0.56600
N1774       N  0.20284464  0.35617731  0.35952320    -0.36000
N1775       N  0.16433304  0.30184372  0.38370278    -0.56600
C1776       C  0.08587561  0.34947739  0.36319757     0.27600
C1777       C  0.09728008  0.30353934  0.38274158     0.27600
C1778       C  0.21230288  0.38585095  0.35023393     0.27600
C1779       C  0.22012104  0.34616356  0.38495001     0.27600
C1780       C  0.11486358  0.38754439  0.32959441     0.36200
C1781       C  0.16376543  0.39970557  0.32065725     0.36200
C1782       C  0.14707921  0.27513358  0.38513826     0.36200
C1783       C  0.19450836  0.29364799  0.38792098     0.36200
C1784       C  0.06111325  0.34138045  0.38287709    -0.21300
C1785       C  0.06827200  0.31224319  0.39518650    -0.21300
C1786       C  0.23752501  0.39443376  0.36947617    -0.21300
C1787       C  0.24189528  0.37002567  0.39161465    -0.21300
C1788       C  0.11471793  0.40763321  0.30405428    -0.22300
C1789       C  0.14562685  0.41516856  0.29820275    -0.22300
C1790       C  0.16633403  0.24917348  0.39006703    -0.22300
C1791       C  0.19669827  0.26084784  0.39128471    -0.22300
C1792       C  0.08750217  0.37729098  0.34530989    -0.17700
C1793       C  0.11480183  0.27646464  0.39144708    -0.17700
C1794       C  0.21588912  0.31561026  0.40069058    -0.17700
C1795       C  0.19653872  0.40483055  0.32602076    -0.17700
H1796       H  0.04024163  0.35521519  0.38814558     0.15200
H1797       H  0.05411339  0.29945197  0.41200767     0.15200
H1798       H  0.25046767  0.41655367  0.36869257     0.15200
H1799       H  0.25937656  0.36982590  0.41019056     0.15200
H1800       H  0.09434228  0.41646920  0.29137009     0.13500
H1801       H  0.15347270  0.43133934  0.28023456     0.13500
H1802       H  0.15903555  0.22512962  0.39511993     0.13500
H1803       H  0.21750538  0.24745304  0.39792654     0.13500
H1804       H  0.12757054  0.32558215  0.34867680     0.26800
H1805       H  0.18512597  0.34301694  0.34853360     0.26800
N1806       N  0.88423990  0.38229677  0.59828466    -0.36000
N1807       N  0.92625023  0.35437735  0.64723303    -0.56600
N1808       N  0.87585440  0.36153908  0.69385921    -0.36000
N1809       N  0.83843215  0.39171678  0.64408189    -0.56600
C1810       C  0.91342974  0.38648433  0.58676178     0.27600
C1811       C  0.86516687  0.40377661  0.58466260     0.27600
C1812       C  0.90139205  0.35182283  0.71118729     0.27600
C1813       C  0.85781676  0.38296594  0.71024924     0.27600
C1814       C  0.93708964  0.34522122  0.61882199     0.36200
C1815       C  0.92972857  0.32902218  0.66629238     0.36200
C1816       C  0.82032825  0.39344113  0.61831212     0.36200
C1817       C  0.81881581  0.38870438  0.66830169     0.36200
C1818       C  0.91320538  0.41094000  0.56515346    -0.21300
C1819       C  0.88240047  0.42206457  0.56388919    -0.21300
C1820       C  0.89899883  0.36654722  0.74025129    -0.21300
C1821       C  0.87215615  0.38647149  0.73944350    -0.21300
C1822       C  0.94692878  0.31401179  0.61951222    -0.22300
C1823       C  0.94162131  0.30352267  0.64930123    -0.22300
C1824       C  0.78858409  0.39105417  0.62593067    -0.22300
C1825       C  0.78761304  0.38779833  0.65790714    -0.22300
C1826       C  0.93802052  0.36495618  0.59223639    -0.17700
C1827       C  0.83252290  0.40550714  0.59049545    -0.17700
C1828       C  0.82882202  0.39781156  0.69816203    -0.17700
C1829       C  0.92605676  0.33064348  0.69936885    -0.17700
H1830       H  0.93287552  0.41908013  0.55115066     0.15200
H1831       H  0.87362940  0.44090585  0.54909758     0.15200
H1832       H  0.91533967  0.36416094  0.75965913     0.15200
H1833       H  0.86405570  0.40143597  0.75837783     0.15200
H1834       H  0.95591808  0.29992790  0.60029259     0.13500
H1835       H  0.94583534  0.27958821  0.65717400     0.13500
H1836       H  0.76843052  0.39413029  0.61051225     0.13500
H1837       H  0.76648986  0.38810404  0.67217504     0.13500
H1838       H  0.87727320  0.36394868  0.61305867     0.26800
H1839       H  0.87096042  0.35322988  0.67135802     0.26800
N1840       N  0.88523674  0.35806672  0.13243392    -0.36000
N1841       N  0.90992285  0.40343091  0.08676026    -0.56600
N1842       N  0.88159419  0.36821969  0.03536417    -0.36000
N1843       N  0.85501297  0.32505139  0.08281453    -0.56600
C1844       C  0.89199229  0.38303791  0.15076878     0.27600
C1845       C  0.86518214  0.33957856  0.14861698     0.27600
C1846       C  0.89097563  0.39561146  0.02097749     0.27600
C1847       C  0.85604566  0.35543996  0.01998241     0.27600
C1848       C  0.92567452  0.41144754  0.11317349     0.36200
C1849       C  0.92739831  0.41473844  0.06295050     0.36200
C1850       C  0.85274543  0.30333733  0.10578155     0.36200
C1851       C  0.84859923  0.30965826  0.05597508     0.36200
C1852       C  0.87663685  0.38018285  0.17930525    -0.21300
C1853       C  0.85952801  0.35256611  0.17789956    -0.21300
C1854       C  0.87142353  0.39994940  0.99514803    -0.21300
C1855       C  0.84933036  0.37501535  0.99473582    -0.21300
C1856       C  0.95306502  0.42788839  0.10646252    -0.22300
C1857       C  0.95440743  0.42979122  0.07463158    -0.22300
C1858       C  0.84475604  0.27409060  0.09397361    -0.22300
C1859       C  0.84282552  0.27767469  0.06235715    -0.22300
C1860       C  0.91414849  0.40642523  0.14334375    -0.17700
C1861       C  0.85278672  0.31093172  0.13750771    -0.17700
C1862       C  0.84052036  0.32578440  0.02811298    -0.17700
C1863       C  0.91685405  0.41582589  0.03153604    -0.17700
H1864       H  0.87802949  0.39603436  0.19923101     0.15200
H1865       H  0.84485589  0.34308821  0.19635657     0.15200
H1866       H  0.87248527  0.41935410  0.97869573     0.15200
H1867       H  0.83067930  0.37158808  0.97761682     0.15200
H1868       H  0.97000790  0.43790969  0.12280856     0.13500
H1869       H  0.97274351  0.44205750  0.06187779     0.13500
H1870       H  0.83975314  0.25283237  0.10705347     0.13500
H1871       H  0.83676646  0.25854754  0.04665513     0.13500
H1872       H  0.89527943  0.35309391  0.11077940     0.26800
H1873       H  0.89301004  0.35808347  0.05449446     0.26800
N1874       N  0.86701586  0.62143422  0.40423762    -0.36000
N1875       N  0.84607534  0.67742691  0.43082717    -0.56600
N1876       N  0.87077156  0.71781144  0.38086718    -0.36000
N1877       N  0.89241823  0.66014550  0.35195393    -0.56600
C1878       C  0.84461978  0.61038676  0.42385523     0.27600
C1879       C  0.86999397  0.60006127  0.38126386     0.27600
C1880       C  0.84572362  0.73510143  0.39200053     0.27600
C1881       C  0.87990945  0.72856134  0.35217647     0.27600
C1882       C  0.84112652  0.65817530  0.45505476     0.36200
C1883       C  0.84389273  0.70689378  0.44184193     0.36200
C1884       C  0.90521431  0.63122640  0.34686972     0.36200
C1885       C  0.91074187  0.68096779  0.33614557     0.36200
C1886       C  0.83382715  0.58110548  0.41366769    -0.21300
C1887       C  0.85013056  0.57443932  0.38660508    -0.21300
C1888       C  0.83896250  0.75809819  0.36977665    -0.21300
C1889       C  0.86091873  0.75452788  0.34519734    -0.21300
C1890       C  0.83588582  0.67514237  0.48193323    -0.22300
C1891       C  0.83936658  0.70632793  0.47413524    -0.22300
C1892       C  0.93143860  0.63352648  0.32772197    -0.22300
C1893       C  0.93489786  0.66486170  0.32079631    -0.22300
C1894       C  0.83451464  0.62638042  0.45081791    -0.17700
C1895       C  0.89212282  0.60238532  0.35717843    -0.17700
C1896       C  0.90441863  0.71384135  0.33309212    -0.17700
C1897       C  0.83090438  0.72981583  0.42231623    -0.17700
H1898       H  0.81619891  0.56618503  0.42457072     0.15200
H1899       H  0.84769571  0.55324925  0.37245117     0.15200
H1900       H  0.82072106  0.77599327  0.37134875     0.15200
H1901       H  0.86192166  0.76869120  0.32415976     0.15200
H1902       H  0.82662166  0.66594003  0.50340998     0.13500
H1903       H  0.83306053  0.72616441  0.48898914     0.13500
H1904       H  0.94631677  0.61453836  0.31919669     0.13500
H1905       H  0.95292324  0.67433923  0.30553874     0.13500
H1906       H  0.88090893  0.64168868  0.40678442     0.26800
H1907       H  0.88199705  0.69943658  0.39267034     0.26800
N1908       N  0.84084695  0.15091596  0.42546609    -0.36000
N1909       N  0.88185117  0.09871838  0.44063616    -0.56600
N1910       N  0.85557877  0.05399067  0.39479654    -0.36000
N1911       N  0.81606203  0.10704524  0.37704164    -0.56600
C1912       C  0.86623576  0.16528804  0.43834018     0.27600
C1913       C  0.82987361  0.17012127  0.40289625     0.27600
C1914       C  0.88436045  0.04064699  0.40161595     0.27600
C1915       C  0.84537697  0.04485621  0.36564924     0.27600
C1916       C  0.88493490  0.11863170  0.46515348     0.36200
C1917       C  0.89121650  0.07020070  0.45100310     0.36200
C1918       C  0.79478712  0.13068841  0.37975506     0.36200
C1919       C  0.80059954  0.08254846  0.36360458     0.36200
C1920       C  0.87109233  0.19452133  0.42452559    -0.21300
C1921       C  0.84801073  0.19754801  0.40179779    -0.21300
C1922       C  0.89235497  0.02147549  0.37636904    -0.21300
C1923       C  0.86791758  0.02399666  0.35392627    -0.21300
C1924       C  0.89612334  0.10302959  0.49108658    -0.22300
C1925       C  0.89875333  0.07189125  0.48272262    -0.22300
C1926       C  0.76555979  0.12126995  0.36837457    -0.22300
C1927       C  0.76902590  0.09049347  0.35864921    -0.22300
C1928       C  0.88503119  0.15141778  0.46157790    -0.17700
C1929       C  0.80425750  0.16232568  0.38336565    -0.17700
C1930       C  0.81633768  0.05608944  0.35059504    -0.17700
C1931       C  0.90222772  0.04665177  0.43035894    -0.17700
H1932       H  0.88988084  0.21128684  0.42946078     0.15200
H1933       H  0.84554528  0.21720585  0.38579245     0.15200
H1934       H  0.91365652  0.00747123  0.37409509     0.15200
H1935       H  0.86729071  0.01236182  0.33132640     0.15200
H1936       H  0.90434069  0.11378475  0.51247960     0.13500
H1937       H  0.90887505  0.05341010  0.49714507     0.13500
H1938       H  0.74466265  0.13580766  0.36550720     0.13500
H1939       H  0.75077624  0.07626756  0.34759177     0.13500
H1940       H  0.83136071  0.12900020  0.43178046     0.26800
H1941       H  0.84296866  0.06864602  0.40988657     0.26800
O1942       O  0.05171186  0.27521248  0.68684109    -0.77900
C1943       C  0.98650098  0.19481666  0.68538378     0.83200
O1944       O  0.94957403  0.30908035  0.74848463    -0.79000
O1945       O  0.96096525  0.20638832  0.79259629    -0.80500
O1946       O  0.07786705  0.20808849  0.77696534    -0.80300
O1947       O  0.08647716  0.26536354  0.72457735    -0.78900
Zn1948     Zn  0.00877478  0.26154397  0.70686050     1.55700
O1949       O  0.03730344  0.17505788  0.77039459    -0.80300
Cd1950     Cd  0.05751798  0.25318527  0.76396924     1.59700
Cd1951     Cd  0.98093707  0.28126282  0.77789121     1.59600
O1952       O  0.05750736  0.29016739  0.79988268    -0.80300
O1953       O  0.01104193  0.25042211  0.75159381    -1.90800
Cd1954     Cd  0.99797169  0.20448998  0.75707532     1.59900
O1955       O  0.00982090  0.31218292  0.80642119    -0.80300
O1956       O  0.98377457  0.18427616  0.71338952    -0.78900
C1957       C  0.95043713  0.31111495  0.71857755     0.83600
C1958       C  0.08047093  0.27370527  0.69630537     0.83300
O1959       O  0.99725586  0.22262666  0.68038253    -0.77900
C1960       C  0.06670140  0.17974138  0.77684543     0.84100
O1961       O  0.97197923  0.29554524  0.70360280    -0.78000
C1962       C  0.03961754  0.31154265  0.81264882     0.84200
C1963       C  0.94579841  0.22580038  0.81091479     0.84500
O1964       O  0.95022213  0.25571999  0.80882314    -0.80400
C1965       C  0.03076307  0.24535787  0.99757041     0.80800
N1966       N  0.03731353  0.21927065  0.98012394    -0.77500
C1967       C  0.01840429  0.19321568  0.98250293     0.83300
N1968       N  0.99458893  0.19267783  0.00352690    -0.77400
C1969       C  0.98911171  0.21832717  0.02173320     0.83400
N1970       N  0.00684051  0.24457844  0.01833011    -0.79100
N1971       N  0.12868082  0.35207296  0.09967974    -0.36000
N1972       N  0.15288734  0.40102771  0.14180538    -0.56600
N1973       N  0.12824470  0.45231555  0.10238840    -0.36000
N1974       N  0.09903937  0.40146665  0.06367541    -0.56600
C1975       C  0.13284908  0.33588012  0.12650800     0.27600
C1976       C  0.10773067  0.33590751  0.08213890     0.27600
C1977       C  0.13847782  0.46791186  0.12882573     0.27600
C1978       C  0.10370515  0.46820101  0.08842694     0.27600
C1979       C  0.16924298  0.37442170  0.14797329     0.36200
C1980       C  0.17370936  0.42491028  0.14507809     0.36200
C1981       C  0.09984422  0.37719992  0.04291574     0.36200
C1982       C  0.09545639  0.42809850  0.04667942     0.36200
C1983       C  0.11433040  0.30878457  0.12620123    -0.21300
C1984       C  0.09832167  0.30875678  0.09789140    -0.21300
C1985       C  0.12032667  0.49522379  0.13140826    -0.21300
C1986       C  0.09850363  0.49531891  0.10629931    -0.21300
C1987       C  0.20050643  0.38094675  0.15496581    -0.22300
C1988       C  0.20363349  0.41309042  0.15213892    -0.22300
C1989       C  0.09707560  0.38834059  0.01262129    -0.22300
C1990       C  0.09438062  0.42064073  0.01497813    -0.22300
C1991       C  0.15500535  0.34470126  0.14946162    -0.17700
C1992       C  0.09882482  0.34508561  0.05174233    -0.17700
C1993       C  0.08735821  0.45779919  0.05985690    -0.17700
C1994       C  0.16369669  0.45638070  0.14947447    -0.17700
H1995       H  0.11285194  0.29086474  0.14419877     0.15200
H1996       H  0.08176223  0.29088143  0.08985452     0.15200
H1997       H  0.12214824  0.51299207  0.14963563     0.15200
H1998       H  0.08085082  0.51331862  0.10191325     0.15200
H1999       H  0.21893585  0.36431282  0.16123783     0.13500
H2000       H  0.22503670  0.42649768  0.15659645     0.13500
H2001       H  0.09609992  0.37456425  0.99122069     0.13500
H2002       H  0.09082983  0.43675845  0.99564829     0.13500
H2003       H  0.14097255  0.37228019  0.09267616     0.26800
H2004       H  0.13814094  0.43144128  0.09389733     0.26800
C2005       C  0.01516419  0.02924680  0.26833064     0.80800
N2006       N  0.99782938  0.05532513  0.26194946    -0.77500
C2007       C  0.97837908  0.05580350  0.23686884     0.83300
N2008       N  0.97618339  0.03000426  0.21790921    -0.77400
C2009       C  0.99286421  0.00348138  0.22478734     0.83400
N2010       N  0.01281020  0.00340630  0.24970607    -0.79100
C2011       C  0.22540010  0.26894813  0.23488994     0.80800
N2012       N  0.21661452  0.25605966  0.26280393    -0.77500
C2013       C  0.23630838  0.23514338  0.27741068     0.83300
N2014       N  0.26355713  0.22659897  0.26314833    -0.77400
C2015       C  0.27204468  0.23874468  0.23532877     0.83400
N2016       N  0.25301976  0.26008655  0.22142503    -0.79100
N2017       N  0.16018970  0.09226337  0.36146347    -0.36000
N2018       N  0.11393833  0.07062167  0.40804539    -0.56600
N2019       N  0.14038876  0.11012788  0.45793763    -0.36000
N2020       N  0.19848817  0.15335675  0.41037305    -0.56600
C2021       C  0.13840792  0.07938083  0.34248378     0.27600
C2022       C  0.17676030  0.11350742  0.34469066     0.27600
C2023       C  0.11316796  0.10007403  0.47209581     0.27600
C2024       C  0.15341517  0.13564733  0.47339114     0.27600
C2025       C  0.11105343  0.04974453  0.38412699     0.36200
C2026       C  0.09989087  0.05711419  0.43298827     0.36200
C2027       C  0.20731340  0.13129529  0.38943971     0.36200
C2028       C  0.19858599  0.13859976  0.43821077     0.36200
C2029       C  0.14154671  0.09180530  0.31258958    -0.21300
C2030       C  0.16597131  0.11357026  0.31402858    -0.21300
C2031       C  0.10874761  0.11987077  0.49787281    -0.21300
C2032       C  0.13369039  0.14225967  0.49849539    -0.21300
C2033       C  0.09501812  0.02298241  0.39354427    -0.22300
C2034       C  0.08780023  0.02750890  0.42423823    -0.22300
C2035       C  0.21447310  0.10289146  0.40418828    -0.22300
C2036       C  0.20888385  0.10760168  0.43548827    -0.22300
C2037       C  0.11555326  0.05756792  0.35253660    -0.17700
C2038       C  0.19904574  0.13438789  0.35796943    -0.17700
C2039       C  0.18269939  0.15146713  0.46373504    -0.17700
C2040       C  0.09386889  0.07290862  0.46185832    -0.17700
H2041       H  0.12725472  0.08654144  0.29215319     0.15200
H2042       H  0.17419374  0.12828250  0.29501542     0.15200
H2043       H  0.08953095  0.11849879  0.51447616     0.15200
H2044       H  0.13696083  0.16093721  0.51561789     0.15200
H2045       H  0.08757113  0.00315096  0.37913098     0.13500
H2046       H  0.07391220  0.01091340  0.43757118     0.13500
H2047       H  0.22027354  0.08055455  0.39308649     0.13500
H2048       H  0.20962120  0.08980500  0.45366377     0.13500
H2049       H  0.16243357  0.08753162  0.38515914     0.26800
H2050       H  0.15017564  0.09964727  0.43827205     0.26800
C2051       C  0.24979010  0.03668788  0.02732195     0.80800
N2052       N  0.23810886  0.02050544  0.05207554    -0.77500
C2053       C  0.21175328  0.00282872  0.04880244     0.83300
N2054       N  0.19724653  0.00062150  0.02067831    -0.77400
C2055       C  0.20889754  0.01623686  0.99584347     0.83400
N2056       N  0.23472070  0.03502069  0.99923736    -0.79100
N2057       N  0.36144692  0.14247885  0.10415632    -0.36000
N2058       N  0.41055657  0.11464073  0.06370208    -0.56600
N2059       N  0.45721196  0.12485446  0.11352909    -0.36000
N2060       N  0.40700026  0.15700921  0.14949715    -0.56600
C2061       C  0.34706185  0.14232832  0.07619863     0.27600
C2062       C  0.34508444  0.16232562  0.12282370     0.27600
C2063       C  0.47569657  0.11273826  0.09021302     0.27600
C2064       C  0.47428781  0.14544669  0.13213933     0.27600
C2065       C  0.38383523  0.10724022  0.04754358     0.36200
C2066       C  0.43289989  0.09404388  0.05362097     0.36200
C2067       C  0.38090212  0.15770423  0.16716804     0.36200
C2068       C  0.43132778  0.15304333  0.16907871     0.36200
C2069       C  0.32061320  0.16173193  0.07698198    -0.21300
C2070       C  0.31955444  0.17480394  0.10660213    -0.21300
C2071       C  0.50591138  0.12514961  0.09454096    -0.21300
C2072       C  0.50483809  0.14622447  0.12022110    -0.21300
C2073       C  0.38946929  0.08313074  0.02633566    -0.22300
C2074       C  0.42038102  0.07486679  0.03000227    -0.22300
C2075       C  0.38849435  0.15459962  0.19857597    -0.22300
C2076       C  0.42077415  0.15110924  0.19971914    -0.22300
C2077       C  0.35353876  0.11997647  0.05299583    -0.17700
C2078       C  0.35179219  0.16668887  0.15471282    -0.17700
C2079       C  0.46177372  0.16141485  0.15996825    -0.17700
C2080       C  0.46454568  0.09203095  0.06499423    -0.17700
H2081       H  0.30327222  0.16494356  0.05854555     0.15200
H2082       H  0.30141691  0.19045431  0.11553111     0.15200
H2083       H  0.52632147  0.12053957  0.08001435     0.15200
H2084       H  0.52453935  0.15980400  0.12941972     0.15200
H2085       H  0.37279366  0.07207232  0.01037418     0.13500
H2086       H  0.43197404  0.05624235  0.01694544     0.13500
H2087       H  0.37281019  0.15610835  0.21847408     0.13500
H2088       H  0.43523826  0.14989435  0.22060666     0.13500
H2089       H  0.37962475  0.12729375  0.11080123     0.26800
H2090       H  0.43371700  0.11841879  0.11681046     0.26800
N2091       N  0.08951895  0.06721337  0.87604377    -0.36000
N2092       N  0.07090835  0.12137510  0.83876476    -0.56600
N2093       N  0.12663100  0.11134664  0.79780500    -0.36000
N2094       N  0.14242783  0.05237310  0.83650415    -0.56600
C2095       C  0.06192485  0.07454200  0.88969571     0.27600
C2096       C  0.09977374  0.03995931  0.88874269     0.27600
C2097       C  0.10827179  0.13145264  0.78036294     0.27600
C2098       C  0.14634057  0.09393367  0.77891872     0.27600
C2099       C  0.05731568  0.12797717  0.86663401     0.36200
C2100       C  0.07431338  0.14953700  0.82424550     0.36200
C2101       C  0.15219267  0.04296556  0.86507927     0.36200
C2102       C  0.16837327  0.06410495  0.82251127     0.36200
C2103       C  0.05340376  0.05074713  0.91033972    -0.21300
C2104       C  0.07750139  0.02870847  0.90972599    -0.21300
C2105       C  0.11703624  0.12728091  0.74929426    -0.21300
C2106       C  0.14065923  0.10369486  0.74835266    -0.21300
C2107       C  0.05172856  0.16026940  0.86944265    -0.22300
C2108       C  0.06218609  0.17383921  0.84251293    -0.22300
C2109       C  0.18446138  0.04812077  0.86884438    -0.22300
C2110       C  0.19463809  0.06188797  0.84184301    -0.22300
C2111       C  0.04973799  0.10538550  0.88980018    -0.17700
C2112       C  0.13185287  0.03137489  0.88833801    -0.17700
C2113       C  0.16931760  0.07084036  0.79058318    -0.17700
C2114       C  0.08477014  0.15320912  0.79326914    -0.17700
H2115       H  0.03367844  0.05097119  0.92642871     0.15200
H2116       H  0.08007811  0.00874727  0.92537201     0.15200
H2117       H  0.10733135  0.13969871  0.72933312     0.15200
H2118       H  0.15233636  0.09505321  0.72753265     0.15200
H2119       H  0.04094994  0.17287271  0.88873118     0.13500
H2120       H  0.06098974  0.19882089  0.83700575     0.13500
H2121       H  0.19907260  0.04324681  0.88912001     0.13500
H2122       H  0.21872027  0.06876852  0.83653414     0.13500
H2123       H  0.10330935  0.08280667  0.86324504     0.26800
H2124       H  0.12632585  0.11013201  0.82212876     0.26800
N2125       N  0.09711856  0.90408547  0.13442495    -0.36000
N2126       N  0.05796446  0.85377265  0.14388941    -0.56600
N2127       N  0.10493558  0.80758560  0.11839449    -0.36000
N2128       N  0.14727585  0.85971839  0.11200358    -0.56600
C2129       C  0.07404005  0.91743388  0.15173096     0.27600
C2130       C  0.12406415  0.91943779  0.14135435     0.27600
C2131       C  0.09016547  0.79053740  0.14132146     0.27600
C2132       C  0.13270910  0.79324464  0.11014954     0.27600
C2133       C  0.03515935  0.87593273  0.14428813     0.36200
C2134       C  0.04368502  0.82564238  0.14478476     0.36200
C2135       C  0.15863928  0.88896024  0.10595652     0.36200
C2136       C  0.15970137  0.84039087  0.08987663     0.36200
C2137       C  0.08642454  0.94196091  0.16970136    -0.21300
C2138       C  0.11826313  0.94321191  0.16308331    -0.21300
C2139       C  0.10903117  0.76431684  0.14757079    -0.21300
C2140       C  0.13532012  0.76562927  0.12750115    -0.21300
C2141       C  0.00554981  0.86193304  0.14488913    -0.22300
C2142       C  0.01099249  0.82976413  0.14543520    -0.22300
C2143       C  0.17834275  0.88816137  0.08003030    -0.22300
C2144       C  0.17901619  0.85743778  0.06987881    -0.22300
C2145       C  0.04219403  0.90759875  0.15105400    -0.17700
C2146       C  0.15179553  0.91627071  0.12389581    -0.17700
C2147       C  0.15604583  0.80716020  0.08944963    -0.17700
C2148       C  0.06007748  0.79899186  0.15556741    -0.17700
H2149       H  0.07389868  0.95734027  0.18573428     0.15200
H2150       H  0.13504818  0.96035747  0.17217993     0.15200
H2151       H  0.10444437  0.74609153  0.16471267     0.15200
H2152       H  0.15495002  0.74919727  0.12718233     0.15200
H2153       H  0.98287355  0.87354330  0.14749457     0.13500
H2154       H  0.99325998  0.81157592  0.14881403     0.13500
H2155       H  0.19071983  0.90763966  0.06913471     0.13500
H2156       H  0.19246866  0.84870130  0.05015817     0.13500
H2157       H  0.09431167  0.88705161  0.11690557     0.26800
H2158       H  0.09652470  0.82846325  0.10843632     0.26800
N2159       N  0.79513634  0.13956267  0.12585148    -0.36000
N2160       N  0.83594289  0.13345370  0.18338868    -0.56600
N2161       N  0.87892204  0.17945478  0.15779751    -0.36000
N2162       N  0.84004942  0.18902304  0.10313199    -0.56600
C2163       C  0.77591704  0.12364218  0.14637593     0.27600
C2164       C  0.77748937  0.15583401  0.10396895     0.27600
C2165       C  0.89188287  0.17540998  0.18619640     0.27600
C2166       C  0.89432898  0.20348141  0.14412781     0.27600
C2167       C  0.81857758  0.10659892  0.18334345     0.36200
C2168       C  0.86321550  0.12622266  0.19854653     0.36200
C2169       C  0.82375068  0.17870871  0.07794537     0.36200
C2170       C  0.86919712  0.19637342  0.09267735     0.36200
C2171       C  0.74494041  0.12929585  0.13680573    -0.21300
C2172       C  0.74589905  0.14955344  0.11059047    -0.21300
C2173       C  0.91505990  0.19813597  0.19142937    -0.21300
C2174       C  0.91661306  0.21606023  0.16458643    -0.21300
C2175       C  0.83455797  0.08268389  0.19910524    -0.22300
C2176       C  0.86276949  0.09502624  0.20858453    -0.22300
C2177       C  0.84257032  0.17949887  0.05141834    -0.22300
C2178       C  0.87122764  0.19132226  0.06063818    -0.22300
C2179       C  0.78705887  0.10422401  0.17268316    -0.17700
C2180       C  0.79077444  0.17468026  0.07823643    -0.17700
C2181       C  0.89385529  0.20798369  0.11179299    -0.17700
C2182       C  0.88919074  0.14696765  0.20255868    -0.17700
H2183       H  0.72377462  0.12011068  0.14770724     0.15200
H2184       H  0.72556540  0.15826270  0.09781029     0.15200
H2185       H  0.93123275  0.19946347  0.21111291     0.15200
H2186       H  0.93413214  0.23404094  0.15950313     0.15200
H2187       H  0.82667838  0.05870644  0.20340075     0.13500
H2188       H  0.88094033  0.08218422  0.22112321     0.13500
H2189       H  0.83601387  0.17301169  0.02771850     0.13500
H2190       H  0.89120786  0.19556368  0.04544430     0.13500
H2191       H  0.81973997  0.13855809  0.12637628     0.26800
H2192       H  0.86450772  0.16323425  0.14628587     0.26800
C2193       C  0.29412811  0.05514074  0.06028208    -0.20700
C2194       C  0.27698376  0.05775943  0.03221496    -0.08700
C2195       C  0.28530002  0.08133807  0.01038415     0.30100
C2196       C  0.31016885  0.10215199  0.01701447    -0.20700
C2197       C  0.32668576  0.09942199  0.04525428    -0.08800
C2198       C  0.31872610  0.07572941  0.06676973     0.30100
F2199       F  0.33502203  0.07248794  0.09407319    -0.19300
H2200       H  0.28854733  0.03715411  0.07743681     0.18500
H2201       H  0.31656215  0.12027584  0.00029703     0.18500
F2202       F  0.26922949  0.08470354  0.98303754    -0.19300
C2203       C  0.21554224  0.97000708  0.09643312    -0.20700
C2204       C  0.19725260  0.98806663  0.07568004    -0.08700
C2205       C  0.16421153  0.98844578  0.07805890     0.30100
C2206       C  0.14942250  0.96747964  0.09788944    -0.20700
C2207       C  0.16749296  0.94587263  0.11517944    -0.08800
C2208       C  0.20056827  0.94871917  0.11637408     0.30100
F2209       F  0.21816232  0.92805896  0.13336529    -0.19300
H2210       H  0.24113756  0.97001317  0.09492718     0.18500
H2211       H  0.12384461  0.96560240  0.09688951     0.18500
F2212       F  0.14618466  0.00688615  0.05904331    -0.19300
C2213       C  0.17019270  0.04556946  0.96552607    -0.20700
C2214       C  0.18908397  0.01868926  0.96833207    -0.08700
C2215       C  0.18616864  0.99360217  0.94692620     0.30100
C2216       C  0.16510359  0.99623233  0.92177374    -0.20700
C2217       C  0.14673673  0.02369910  0.91849916    -0.08800
C2218       C  0.14914114  0.04813431  0.94080153     0.30100
F2219       F  0.13311329  0.07565141  0.93710364    -0.19300
H2220       H  0.17202717  0.06474151  0.98239509     0.18500
H2221       H  0.16424814  0.97780134  0.90408242     0.18500
F2222       F  0.20444824  0.96735106  0.94978544    -0.19300
C2223       C  0.18515366  0.18550772  0.33093936    -0.20700
C2224       C  0.20799267  0.16378511  0.34161012    -0.08700
C2225       C  0.23991859  0.16927477  0.33542161     0.30100
C2226       C  0.24894301  0.19524946  0.31776966    -0.20700
C2227       C  0.22616581  0.21537562  0.30416874    -0.08800
C2228       C  0.19407717  0.21108490  0.31200716     0.30100
F2229       F  0.17123223  0.22998832  0.29977299    -0.19300
H2230       H  0.16034019  0.18174098  0.33603764     0.18500
H2231       H  0.27387757  0.19791413  0.31256788     0.18500
F2232       F  0.26215764  0.14779070  0.34388382    -0.19300
C2233       C  0.33191481  0.21843591  0.17344368    -0.20700
C2234       C  0.33062792  0.18524337  0.17455233    -0.08700
C2235       C  0.31155357  0.17002203  0.19647920     0.30100
C2236       C  0.29392930  0.18793204  0.21736944    -0.20700
C2237       C  0.29469896  0.22122339  0.21620202    -0.08800
C2238       C  0.31367377  0.23647704  0.19395181     0.30100
F2239       F  0.31465515  0.26857360  0.19219559    -0.19300
H2240       H  0.34713236  0.23023074  0.15675683     0.18500
H2241       H  0.27875463  0.17568616  0.23376560     0.18500
F2242       F  0.31023588  0.13790558  0.19773736    -0.19300
C2243       C  0.05917189  0.05742121  0.33841928    -0.20700
C2244       C  0.09009133  0.04795200  0.33108367    -0.08700
C2245       C  0.09577998  0.02917331  0.30463249     0.30100
C2246       C  0.07060084  0.02100731  0.28500234    -0.20700
C2247       C  0.03985957  0.03148764  0.29195253    -0.08800
C2248       C  0.03413287  0.04891409  0.31924608     0.30100
F2249       F  0.00442814  0.05837281  0.32688433    -0.19300
H2250       H  0.05452893  0.07168138  0.35904298     0.18500
H2251       H  0.07529796  0.00791232  0.26367094     0.18500
F2252       F  0.12554312  0.01952380  0.29755177    -0.19300
C2253       C  0.95880581  0.09430914  0.19833931    -0.20700
C2254       C  0.96098862  0.08460819  0.22950711    -0.08700
C2255       C  0.94496762  0.10148353  0.25304071     0.30100
C2256       C  0.92354897  0.12516283  0.24473409    -0.20700
C2257       C  0.91898080  0.13249450  0.21311900    -0.08800
C2258       C  0.93828421  0.11854324  0.19016357     0.30100
F2259       F  0.93451862  0.12577958  0.15941255    -0.19300
H2260       H  0.97184560  0.08208780  0.18015778     0.18500
H2261       H  0.90860963  0.13569888  0.26247555     0.18500
F2262       F  0.94762682  0.09298728  0.28355483    -0.19300
C2263       C  0.01215705  0.95795279  0.15270309    -0.20700
C2264       C  0.01839524  0.92820607  0.16585515    -0.08700
C2265       C  0.00861163  0.92170955  0.19655797     0.30100
C2266       C  0.99664989  0.94603845  0.21509998    -0.20700
C2267       C  0.99390213  0.97674842  0.20301126    -0.08800
C2268       C  0.99961303  0.98217126  0.17112388     0.30100
F2269       F  0.99722278  0.01174778  0.15893887    -0.19300
H2270       H  0.01987869  0.96323363  0.12913658     0.18500
H2271       H  0.99218727  0.94157754  0.23965770     0.18500
F2272       F  0.01440733  0.89308937  0.20980510    -0.19300
C2273       C  0.18179485  0.29442097  0.16270769    -0.20700
C2274       C  0.16693593  0.32206005  0.17293279    -0.08700
C2275       C  0.16811707  0.33041670  0.20492412     0.30100
C2276       C  0.18597921  0.31230159  0.22594986    -0.20700
C2277       C  0.20265017  0.28585304  0.21504921    -0.08800
C2278       C  0.19941841  0.27637876  0.18354220     0.30100
F2279       F  0.21422016  0.25005057  0.17262597    -0.19300
H2280       H  0.18123997  0.28778320  0.13818980     0.18500
H2281       H  0.18802553  0.31972256  0.25017585     0.18500
F2282       F  0.15311947  0.35682248  0.21538222    -0.19300
C2283       C  0.08318328  0.26758363  0.00961178    -0.20700
C2284       C  0.05203345  0.27250807  0.99942498    -0.08700
C2285       C  0.03858259  0.30280728  0.00169791     0.30100
C2286       C  0.05479576  0.32694212  0.01715270    -0.20700
C2287       C  0.08479779  0.32129162  0.03016189    -0.08800
C2288       C  0.09955928  0.29184815  0.02501368     0.30100
F2289       F  0.12867004  0.28576781  0.03712917    -0.19300
H2290       H  0.09352306  0.24411962  0.00868992     0.18500
H2291       H  0.04292019  0.34934818  0.02096999     0.18500
F2292       F  0.00831474  0.30794263  0.99215603    -0.19300
C2293       C  0.05559447  0.15397440  0.96151446    -0.20700
C2294       C  0.02460855  0.16513236  0.96363998    -0.08700
C2295       C  0.00027424  0.15055932  0.94619865     0.30100
C2296       C  0.00772887  0.12710261  0.92432613    -0.20700
C2297       C  0.03934763  0.11829281  0.92004863    -0.08800
C2298       C  0.06296676  0.13052802  0.93996564     0.30100
F2299       F  0.09382385  0.12321212  0.93535474    -0.19300
H2300       H  0.07439687  0.16476575  0.97522243     0.18500
H2301       H  0.98946461  0.11799207  0.90888933     0.18500
F2302       F  0.97003866  0.16123037  0.94798524    -0.19300
C2303       C  0.95125141  0.24423399  0.05730032    -0.20700
C2304       C  0.96718933  0.21673420  0.04773828    -0.08700
C2305       C  0.96363537  0.18847432  0.06456163     0.30100
C2306       C  0.94237555  0.18724743  0.08912071    -0.20700
C2307       C  0.92403219  0.21386875  0.09640799    -0.08800
C2308       C  0.92961092  0.24279511  0.08161787     0.30100
F2309       F  0.91289580  0.26896027  0.08942186    -0.19300
H2310       H  0.95461779  0.26646214  0.04513074     0.18500
H2311       H  0.93797729  0.16476586  0.10051807     0.18500
F2312       F  0.98013185  0.16198111  0.05692239    -0.19300
C2313       C  0.99099551  0.34964120  0.57132997    -0.20700
C2314       C  0.95866017  0.35554818  0.56583647    -0.08700
C2315       C  0.94464811  0.34469115  0.53786019     0.30100
C2316       C  0.96147658  0.32470869  0.51816518    -0.20700
C2317       C  0.99190127  0.31449348  0.52654753    -0.08800
C2318       C  0.00764316  0.32895328  0.55175084     0.30100
F2319       F  0.03719681  0.31954084  0.56006121    -0.19300
H2320       H  0.00211722  0.35790253  0.59275336     0.18500
H2321       H  0.94917056  0.31382126  0.49856703     0.18500
F2322       F  0.91333641  0.34904167  0.53199620    -0.19300
C2323       C  0.90391758  0.19627283  0.49507391    -0.20700
C2324       C  0.91071421  0.16963057  0.47676136    -0.08700
C2325       C  0.94236775  0.16095256  0.47155002     0.30100
C2326       C  0.96681248  0.17950748  0.48333506    -0.20700
C2327       C  0.96027846  0.20762353  0.49966997    -0.08800
C2328       C  0.92846519  0.21529317  0.50650691     0.30100
F2329       F  0.92081758  0.24194585  0.52265002    -0.19300
H2330       H  0.87957902  0.20290498  0.49952766     0.18500
H2331       H  0.99088656  0.17277099  0.47783536     0.18500
F2332       F  0.94970113  0.13560355  0.45332262    -0.19300
C2333       C  0.09117404  0.26328692  0.47391980    -0.20700
C2334       C  0.06406622  0.24471433  0.46937198    -0.08700
C2335       C  0.05966581  0.22885078  0.44048695     0.30100
C2336       C  0.07894709  0.23625132  0.41507154    -0.20700
C2337       C  0.10332325  0.25838222  0.41869549    -0.08800
C2338       C  0.11099700  0.26981574  0.44878894     0.30100
F2339       F  0.13486977  0.29102279  0.45285720    -0.19300
H2340       H  0.09526329  0.27523465  0.49606477     0.18500
H2341       H  0.07292243  0.22723594  0.39203405     0.18500
F2342       F  0.03424149  0.20976542  0.43542994    -0.19300
C2343       C  0.91401525  0.54028971  0.29833197    -0.20700
C2344       C  0.93133309  0.51921748  0.31717693    -0.08700
C2345       C  0.93324421  0.52439333  0.34969335     0.30100
C2346       C  0.91982407  0.55134284  0.36262833    -0.20700
C2347       C  0.90370115  0.57282128  0.34351774    -0.08800
C2348       C  0.89982525  0.56671604  0.31155309     0.30100
F2349       F  0.88257401  0.58649585  0.29329250    -0.19300
H2350       H  0.91166205  0.53656684  0.27333365     0.18500
H2351       H  0.92230920  0.55574428  0.38752649     0.18500
F2352       F  0.94786305  0.50353088  0.36905500    -0.19300
C2353       C  0.91392143  0.45135286  0.18047068    -0.20700
C2354       C  0.92822693  0.42364065  0.16949039    -0.08700
C2355       C  0.95220820  0.40893836  0.18660511     0.30100
C2356       C  0.96099790  0.42114124  0.21540955    -0.20700
C2357       C  0.94576225  0.44807517  0.22761600    -0.08800
C2358       C  0.92252055  0.46361272  0.20957279     0.30100
F2359       F  0.90707061  0.48955724  0.22044854    -0.19300
H2360       H  0.89483647  0.46225817  0.16737762     0.18500
H2361       H  0.97899358  0.40863328  0.22857469     0.18500
F2362       F  0.96554813  0.38158694  0.17628491    -0.19300
C2363       C  0.03067920  0.44565595  0.33895097    -0.20700
C2364       C  0.00615786  0.43095841  0.32214521    -0.08700
C2365       C  0.00661095  0.39810897  0.31700571     0.30100
C2366       C  0.03264747  0.38056134  0.32609322    -0.20700
C2367       C  0.05828439  0.39547888  0.34072726    -0.08800
C2368       C  0.05686825  0.42791912  0.34824205     0.30100
F2369       F  0.08152605  0.44258894  0.36278793    -0.19300
H2370       H  0.03054656  0.47102298  0.34292345     0.18500
H2371       H  0.03352233  0.35555197  0.32034204     0.18500
F2372       F  0.98256406  0.38327433  0.30165982    -0.19300
C2373       C  0.77358664  0.43786473  0.53279508    -0.20700
C2374       C  0.76917152  0.46871649  0.54461817    -0.08700
C2375       C  0.78610119  0.47843464  0.57146194     0.30100
C2376       C  0.80751133  0.45789852  0.58551636    -0.20700
C2377       C  0.81238940  0.42755996  0.57309131    -0.08800
C2378       C  0.79519101  0.41741384  0.54690125     0.30100
F2379       F  0.79925774  0.38779433  0.53515342    -0.19300
H2380       H  0.76120338  0.42988755  0.51196111     0.18500
H2381       H  0.82019240  0.46549770  0.60634496     0.18500
F2382       F  0.78230062  0.50781982  0.58395026    -0.19300
C2383       C  0.75714329  0.59546247  0.48001135    -0.20700
C2384       C  0.76787542  0.57311971  0.50189205    -0.08700
C2385       C  0.79972093  0.57442458  0.51221270     0.30100
C2386       C  0.82133558  0.59332775  0.49648004    -0.20700
C2387       C  0.81118433  0.61178570  0.47145373    -0.08800
C2388       C  0.77878740  0.61495604  0.46488839     0.30100
F2389       F  0.76858287  0.63478212  0.44200057    -0.19300
H2390       H  0.73265210  0.59559745  0.47237871     0.18500
H2391       H  0.84625717  0.59200622  0.50242330     0.18500
F2392       F  0.81105069  0.55459519  0.53453750    -0.19300
C2393       C  0.69361341  0.45931819  0.45238185    -0.20700
C2394       C  0.70453567  0.49080317  0.45272441    -0.08700
C2395       C  0.70023445  0.50971017  0.42581059     0.30100
C2396       C  0.68463559  0.49740789  0.39962865    -0.20700
C2397       C  0.67281382  0.46649058  0.40011397    -0.08800
C2398       C  0.67778464  0.44727253  0.42635886     0.30100
F2399       F  0.66585853  0.41738468  0.42732000    -0.19300
H2400       H  0.69663496  0.44411441  0.47254609     0.18500
H2401       H  0.68021772  0.51249636  0.37961430     0.18500
F2402       F  0.71047785  0.54017200  0.42477469    -0.19300
C2403       C  0.77321025  0.23561216  0.34248599    -0.20700
C2404       C  0.77637765  0.22633648  0.31100653    -0.08700
C2405       C  0.78823913  0.19618796  0.30377058     0.30100
C2406       C  0.79700822  0.17580100  0.32757535    -0.20700
C2407       C  0.79384408  0.18482122  0.35905100    -0.08800
C2408       C  0.78203325  0.21496890  0.36649737     0.30100
F2409       F  0.77929741  0.22438460  0.39678254    -0.19300
H2410       H  0.76434868  0.25893056  0.34842623     0.18500
H2411       H  0.80650346  0.15279252  0.32137128     0.18500
F2412       F  0.79081085  0.18607808  0.27368045    -0.19300
C2413       C  0.70991179  0.33865279  0.24925495    -0.20700
C2414       C  0.71037562  0.31210269  0.26921342    -0.08700
C2415       C  0.68760347  0.30935901  0.29288634     0.30100
C2416       C  0.66510414  0.33295132  0.29660437    -0.20700
C2417       C  0.66568400  0.35994654  0.27758932    -0.08800
C2418       C  0.68793232  0.36275382  0.25373179     0.30100
F2419       F  0.68934820  0.38935714  0.23602855    -0.19300
H2420       H  0.72742538  0.34147363  0.23103105     0.18500
H2421       H  0.64823096  0.33113886  0.31556612     0.18500
F2422       F  0.68744695  0.28444213  0.31290091    -0.19300
C2423       C  0.78103986  0.28248459  0.17945502    -0.20700
C2424       C  0.79470806  0.26875392  0.20614433    -0.08700
C2425       C  0.82762427  0.26364857  0.20727267     0.30100
C2426       C  0.84672447  0.27528573  0.18337081    -0.20700
C2427       C  0.83305096  0.29190031  0.15847484    -0.08800
C2428       C  0.80008139  0.29433131  0.15588930     0.30100
F2429       F  0.78657007  0.31095101  0.13217005    -0.19300
H2430       H  0.75573276  0.28641338  0.17801467     0.18500
H2431       H  0.87222434  0.27341497  0.18535466     0.18500
F2432       F  0.84165221  0.25065685  0.23281323    -0.19300
C2433       C  0.94414571  0.57295807  0.64124946    -0.20700
C2434       C  0.92731262  0.54725434  0.62849597    -0.08700
C2435       C  0.93414612  0.51636317  0.63821996     0.30100
C2436       C  0.95588939  0.51161296  0.66240852    -0.20700
C2437       C  0.97055981  0.53768792  0.67715450    -0.08800
C2438       C  0.96562217  0.56827377  0.66551595     0.30100
F2439       F  0.98103273  0.59361791  0.67798650    -0.19300
H2440       H  0.93884692  0.59694737  0.63394298     0.18500
H2441       H  0.95992259  0.48774873  0.67077756     0.18500
F2442       F  0.91780826  0.49134931  0.62626663    -0.19300
C2443       C  0.09650473  0.45478209  0.70128631    -0.20700
C2444       C  0.08184509  0.42520558  0.69765671    -0.08700
C2445       C  0.05234683  0.41940689  0.71151372     0.30100
C2446       C  0.03644958  0.44398357  0.72642706    -0.20700
C2447       C  0.04988997  0.47430739  0.72760849    -0.08800
C2448       C  0.08055458  0.47937437  0.71621963     0.30100
F2449       F  0.09323236  0.50894832  0.71588377    -0.19300
H2450       H  0.11922185  0.45937915  0.69052171     0.18500
H2451       H  0.01241215  0.44016128  0.73434973     0.18500
F2452       F  0.03764990  0.39098503  0.70787434    -0.19300
C2453       C  0.03194349  0.58499736  0.83174984    -0.20700
C2454       C  0.02322962  0.61669691  0.82729596    -0.08700
C2455       C  0.00669979  0.62521882  0.80000328     0.30100
C2456       C  0.00178601  0.60268686  0.77626745    -0.20700
C2457       C  0.01314600  0.57148115  0.77968924    -0.08800
C2458       C  0.02703578  0.56260806  0.80833976     0.30100
F2459       F  0.03707312  0.53254637  0.81350290    -0.19300
H2460       H  0.04466161  0.57795036  0.85268290     0.18500
H2461       H  0.99049033  0.61005975  0.75469226     0.18500
F2462       F  0.99740843  0.65564237  0.79547685    -0.19300
C2463       C  0.28065228  0.55038693  0.54990783    -0.20700
C2464       C  0.27983643  0.51849268  0.54088254    -0.08700
C2465       C  0.29618398  0.49568515  0.55850834     0.30100
C2466       C  0.31599403  0.50544867  0.58294867    -0.20700
C2467       C  0.31782299  0.53764922  0.59087608    -0.08800
C2468       C  0.29883116  0.55984113  0.57533174     0.30100
F2469       F  0.30013626  0.59102293  0.58315084    -0.19300
H2470       H  0.26680760  0.56794358  0.53747008     0.18500
H2471       H  0.33053965  0.48822345  0.59503218     0.18500
F2472       F  0.29354160  0.46436224  0.55160039    -0.19300
C2473       C  0.17528229  0.47745840  0.55225077    -0.20700
C2474       C  0.17907207  0.47443221  0.51978881    -0.08700
C2475       C  0.16046588  0.45266079  0.50301236     0.30100
C2476       C  0.14151339  0.43115127  0.51939839    -0.20700
C2477       C  0.14183068  0.43121315  0.55233400    -0.08800
C2478       C  0.15749318  0.45562803  0.56856751     0.30100
F2479       F  0.15910138  0.45595101  0.60034806    -0.19300
H2480       H  0.18893941  0.49471447  0.56547504     0.18500
H2481       H  0.12940766  0.41243482  0.50671105     0.18500
F2482       F  0.16344297  0.44975437  0.47152936    -0.19300
C2483       C  0.32922076  0.65777129  0.68781064    -0.20700
C2484       C  0.33323062  0.63604896  0.71239646    -0.08700
C2485       C  0.31923292  0.64208117  0.74134903     0.30100
C2486       C  0.29946788  0.66832757  0.74482815    -0.20700
C2487       C  0.29326321  0.68887327  0.71942463    -0.08800
C2488       C  0.30956973  0.68405910  0.69121930     0.30100
F2489       F  0.30591694  0.70402225  0.66663227    -0.19300
H2490       H  0.34086776  0.65381898  0.66558367     0.18500
H2491       H  0.28797383  0.67164121  0.76718220     0.18500
F2492       F  0.32373260  0.62210638  0.76579150    -0.19300
C2493       C  0.17398892  0.74321699  0.77981489    -0.20700
C2494       C  0.20295369  0.72668688  0.77894430    -0.08700
C2495       C  0.20951281  0.70403978  0.80221767     0.30100
C2496       C  0.18676651  0.69689472  0.82452936    -0.20700
C2497       C  0.15742845  0.71230646  0.82421841    -0.08800
C2498       C  0.15132865  0.73602421  0.80228158     0.30100
F2499       F  0.12325839  0.75161670  0.80226481    -0.19300
H2500       H  0.16831691  0.76097005  0.76243376     0.18500
H2501       H  0.19170710  0.67875393  0.84176014     0.18500
F2502       F  0.23716836  0.68772670  0.80278490    -0.19300
C2503       C  0.21150064  0.80878337  0.64043972    -0.20700
C2504       C  0.17825941  0.80890348  0.64257016    -0.08700
C2505       C  0.16281140  0.78341978  0.65701814     0.30100
C2506       C  0.18036366  0.75955619  0.67096324    -0.20700
C2507       C  0.21351665  0.76150440  0.67245242    -0.08800
C2508       C  0.22919868  0.78511124  0.65540907     0.30100
F2509       F  0.26122614  0.78737451  0.65624808    -0.19300
H2510       H  0.22368547  0.82833318  0.62936145     0.18500
H2511       H  0.16785955  0.74148200  0.68400673     0.18500
F2512       F  0.13094614  0.78356394  0.66114987    -0.19300
C2513       C  0.19657301  0.56843355  0.40157955    -0.20700
C2514       C  0.21204631  0.59775778  0.40470851    -0.08700
C2515       C  0.23676216  0.60122569  0.42625522     0.30100
C2516       C  0.24450498  0.57614810  0.44600483    -0.20700
C2517       C  0.22719942  0.54756491  0.44481704    -0.08800
C2518       C  0.20400115  0.54344683  0.42150014     0.30100
F2519       F  0.18768425  0.51582717  0.41873045    -0.19300
H2520       H  0.17771651  0.56540487  0.38455124     0.18500
H2521       H  0.26271368  0.57993472  0.46354257     0.18500
F2522       F  0.25244613  0.62918330  0.42898425    -0.19300
C2523       C  0.07074264  0.70007036  0.41256034    -0.20700
C2524       C  0.09835956  0.71834320  0.41253895    -0.08700
C2525       C  0.09867499  0.74816894  0.42698995     0.30100
C2526       C  0.07138946  0.75930434  0.44181727    -0.20700
C2527       C  0.04351263  0.74086803  0.44196696    -0.08800
C2528       C  0.04346462  0.71120510  0.42666087     0.30100
F2529       F  0.01718570  0.69268433  0.42515102    -0.19300
H2530       H  0.07007058  0.67744238  0.40048183     0.18500
H2531       H  0.07222415  0.78215733  0.45339896     0.18500
F2532       F  0.12500043  0.76660643  0.42613937    -0.19300
C2533       C  0.93926631  0.67513071  0.54577644    -0.20700
C2534       C  0.91896139  0.65764562  0.52649793    -0.08700
C2535       C  0.91938396  0.66193054  0.49400393     0.30100
C2536       C  0.93671182  0.68695417  0.48135189    -0.20700
C2537       C  0.95401252  0.70697767  0.50133679    -0.08800
C2538       C  0.95686239  0.69964043  0.53327646     0.30100
F2539       F  0.97646935  0.71634297  0.55244659    -0.19300
H2540       H  0.93967969  0.67122743  0.57083862     0.18500
H2541       H  0.93598619  0.69121321  0.45636332     0.18500
F2542       F  0.90269160  0.64235776  0.47493109    -0.19300
C2543       C  0.00689967  0.81834910  0.58167578    -0.20700
C2544       C  0.03193894  0.83882546  0.57528822    -0.08700
C2545       C  0.04003710  0.84565701  0.54431779     0.30100
C2546       C  0.02534375  0.82978775  0.51975424    -0.20700
C2547       C  0.00250073  0.80654934  0.52593175    -0.08800
C2548       C  0.99190847  0.80235116  0.55708891     0.30100
F2549       F  0.96924308  0.78081417  0.56431097    -0.19300
H2550       H  0.00027042  0.81342284  0.60563849     0.18500
H2551       H  0.03375611  0.83376134  0.49616283     0.18500
F2552       F  0.06466295  0.86526523  0.53839201    -0.19300
C2553       C  0.66911071  0.26268916  0.65407006    -0.20700
C2554       C  0.66956524  0.26330866  0.68681958    -0.08700
C2555       C  0.64940444  0.28390792  0.70311633     0.30100
C2556       C  0.63276624  0.30705285  0.68657783    -0.20700
C2557       C  0.63684804  0.30971479  0.65408877    -0.08800
C2558       C  0.65301251  0.28588893  0.63764822     0.30100
F2559       F  0.65702774  0.28757366  0.60616506    -0.19300
H2560       H  0.68415893  0.24642374  0.64129128     0.18500
H2561       H  0.61991541  0.32510445  0.69934432     0.18500
F2562       F  0.64927121  0.28459308  0.73487507    -0.19300
C2563       C  0.68200010  0.17055197  0.80892075    -0.20700
C2564       C  0.70598582  0.14870911  0.81572607    -0.08700
C2565       C  0.73451687  0.14979905  0.79921400     0.30100
C2566       C  0.73851642  0.17212849  0.77546946    -0.20700
C2567       C  0.71405373  0.19353394  0.76787419    -0.08800
C2568       C  0.68577404  0.19265287  0.78511375     0.30100
F2569       F  0.66166699  0.21298091  0.77905996    -0.19300
H2570       H  0.65996440  0.16998640  0.82180229     0.18500
H2571       H  0.76056136  0.17216875  0.76262552     0.18500
F2572       F  0.75819698  0.12911481  0.80575002    -0.19300
C2573       C  0.80103827  0.21144637  0.69039366    -0.20700
C2574       C  0.78143113  0.23779766  0.68632118    -0.08700
C2575       C  0.78988215  0.26124389  0.66430865     0.30100
C2576       C  0.81717826  0.25744131  0.64607818    -0.20700
C2577       C  0.83566001  0.23009695  0.64943267    -0.08800
C2578       C  0.82744644  0.20732723  0.67189636     0.30100
F2579       F  0.84457868  0.18032194  0.67518314    -0.19300
H2580       H  0.79506278  0.19286986  0.70678435     0.18500
H2581       H  0.82340490  0.27519880  0.62891819     0.18500
F2582       F  0.77167765  0.28738750  0.66010785    -0.19300
C2583       C  0.43744963  0.25895328  0.56519773    -0.20700
C2584       C  0.45789383  0.24029303  0.54714817    -0.08700
C2585       C  0.46784501  0.21072656  0.55842916     0.30100
C2586       C  0.45452854  0.19837038  0.58560379    -0.20700
C2587       C  0.43073839  0.21517697  0.60127430    -0.08800
C2588       C  0.42379876  0.24639727  0.59222580     0.30100
F2589       F  0.40096537  0.26303749  0.60729805    -0.19300
H2590       H  0.43031334  0.28219763  0.55714817     0.18500
H2591       H  0.45987555  0.17417290  0.59214991     0.18500
F2592       F  0.48916774  0.19316198  0.54223374    -0.19300
C2593       C  0.49720849  0.22642604  0.40988054    -0.20700
C2594       C  0.48059743  0.21743861  0.43687096    -0.08700
C2595       C  0.47160177  0.18541717  0.44029184     0.30100
C2596       C  0.48347578  0.16247333  0.41971782    -0.20700
C2597       C  0.50397880  0.17134645  0.39556269    -0.08800
C2598       C  0.50928237  0.20365328  0.38970528     0.30100
F2599       F  0.52917610  0.21307492  0.36662185    -0.19300
H2600       H  0.50367604  0.25092658  0.40592056     0.18500
H2601       H  0.47870036  0.13765158  0.42403407     0.18500
F2602       F  0.45385446  0.17581589  0.46490890    -0.19300
C2603       C  0.55710180  0.29911092  0.48371477    -0.20700
C2604       C  0.52580962  0.30931053  0.48826067    -0.08700
C2605       C  0.51994899  0.33950755  0.50050401     0.30100
C2606       C  0.54516707  0.35833831  0.51041628    -0.20700
C2607       C  0.57622688  0.34654393  0.50941214    -0.08800
C2608       C  0.58231520  0.31745037  0.49475841     0.30100
F2609       F  0.61203964  0.30527278  0.49456935    -0.19300
H2610       H  0.56182641  0.27550453  0.47485404     0.18500
H2611       H  0.54019507  0.38052877  0.52224565     0.18500
F2612       F  0.48984081  0.34940969  0.50559302    -0.19300
C2613       C  0.63232049  0.04547193  0.44218927    -0.20700
C2614       C  0.63503044  0.07555118  0.42895510    -0.08700
C2615       C  0.65790408  0.09696705  0.43997690     0.30100
C2616       C  0.67740242  0.08854758  0.46484525    -0.20700
C2617       C  0.67466349  0.05842420  0.47842959    -0.08800
C2618       C  0.65253550  0.03657069  0.46630617     0.30100
F2619       F  0.65086645  0.00644105  0.47720184    -0.19300
H2620       H  0.61521097  0.02861599  0.43308542     0.18500
H2621       H  0.69433379  0.10572179  0.47366063     0.18500
F2622       F  0.66123632  0.12593729  0.42662649    -0.19300
C2623       C  0.64198524  0.96388799  0.58667197    -0.20700
C2624       C  0.66201460  0.94196770  0.60123360    -0.08700
C2625       C  0.69468957  0.94824135  0.60306631     0.30100
C2626       C  0.70720870  0.97532947  0.58871848    -0.20700
C2627       C  0.68708135  0.99630782  0.57276405    -0.08800
C2628       C  0.65421543  0.99094891  0.57297893     0.30100
F2629       F  0.63383561  0.01151109  0.55912044    -0.19300
H2630       H  0.61672461  0.95957632  0.58522497     0.18500
H2631       H  0.73257301  0.97910964  0.58882215     0.18500
F2632       F  0.71437962  0.92776952  0.61784701    -0.19300
C2633       C  0.79967602  0.10736216  0.58280981    -0.20700
C2634       C  0.81761804  0.11817247  0.55745375    -0.08700
C2635       C  0.80837772  0.11114181  0.52681640     0.30100
C2636       C  0.78166031  0.09263973  0.52157660    -0.20700
C2637       C  0.76402301  0.08088568  0.54689121    -0.08800
C2638       C  0.77293880  0.08871527  0.57764255     0.30100
F2639       F  0.75569228  0.07883374  0.60251411    -0.19300
H2640       H  0.80696135  0.11274676  0.60659613     0.18500
H2641       H  0.77505951  0.08703429  0.49765584     0.18500
F2642       F  0.82549571  0.12162775  0.50216864    -0.19300
C2643       C  0.47972692  0.08192233  0.71720490    -0.20700
C2644       C  0.47216886  0.06685376  0.74535042    -0.08700
C2645       C  0.44468297  0.07519119  0.76154834     0.30100
C2646       C  0.42310196  0.09597752  0.74785694    -0.20700
C2647       C  0.42938140  0.10918872  0.71843283    -0.08800
C2648       C  0.45857848  0.10329084  0.70385295     0.30100
F2649       F  0.46484224  0.11502854  0.67496320    -0.19300
H2650       H  0.50075676  0.07518035  0.70437420     0.18500
H2651       H  0.40032771  0.09956546  0.75878698     0.18500
F2652       F  0.43705532  0.06034991  0.78863916    -0.19300
C2653       C  0.57819407  0.99322859  0.79882094    -0.20700
C2654       C  0.54971534  0.00833340  0.80705466    -0.08700
C2655       C  0.54845312  0.02710288  0.83410667     0.30100
C2656       C  0.57599409  0.03288729  0.85109819    -0.20700
C2657       C  0.60504139  0.02028649  0.84106317    -0.08800
C2658       C  0.60589659  0.99943735  0.81561585     0.30100
F2659       F  0.63378034  0.98703667  0.80581603    -0.19300
H2660       H  0.57957453  0.97868356  0.77793123     0.18500
H2661       H  0.57506653  0.04897853  0.87089040     0.18500
F2662       F  0.52104154  0.04119409  0.84304147    -0.19300
C2663       C  0.49924856  0.96486261  0.68693946    -0.20700
C2664       C  0.49807694  0.95798278  0.71905543    -0.08700
C2665       C  0.50457708  0.92712700  0.72940452     0.30100
C2666       C  0.51684856  0.90500772  0.70860664    -0.20700
C2667       C  0.52260691  0.91353374  0.67744624    -0.08800
C2668       C  0.51175826  0.94273205  0.66613307     0.30100
F2669       F  0.51690680  0.95117241  0.63594529    -0.19300
H2670       H  0.49413603  0.98849087  0.67850037     0.18500
H2671       H  0.52487476  0.88239217  0.71755216     0.18500
F2672       F  0.50236269  0.91949729  0.76017998    -0.19300
C2673       C  0.42465173  0.52864224  0.21769189    -0.20700
C2674       C  0.45163478  0.53846793  0.23435747    -0.08700
C2675       C  0.45509833  0.57083517  0.24227646     0.30100
C2676       C  0.43373747  0.59310544  0.23052810    -0.20700
C2677       C  0.40864847  0.58327269  0.21137963    -0.08800
C2678       C  0.40337286  0.55085121  0.20613297     0.30100
F2679       F  0.37910928  0.54092046  0.18757979    -0.19300
H2680       H  0.42125627  0.50392672  0.21159475     0.18500
H2681       H  0.43769031  0.61809856  0.23492440     0.18500
F2682       F  0.48055224  0.58143884  0.25876005    -0.19300
C2683       C  0.54579064  0.44442143  0.18037594    -0.20700
C2684       C  0.51545751  0.45714183  0.18472906    -0.08700
C2685       C  0.49229251  0.45262753  0.16107196     0.30100
C2686       C  0.49973246  0.43583111  0.13376053    -0.20700
C2687       C  0.53025172  0.42378718  0.12962626    -0.08800
C2688       C  0.55319349  0.42818572  0.15311860     0.30100
F2689       F  0.58285785  0.41631796  0.14973833    -0.19300
H2690       H  0.56420103  0.44741319  0.19785652     0.18500
H2691       H  0.48178254  0.43213752  0.11593969     0.18500
F2692       F  0.46264627  0.46460231  0.16399411    -0.19300
C2693       C  0.46923004  0.71417050  0.07424481    -0.20700
C2694       C  0.47713222  0.69753235  0.04685104    -0.08700
C2695       C  0.45652520  0.67390304  0.03527198     0.30100
C2696       C  0.42988985  0.66546056  0.05235116    -0.20700
C2697       C  0.42368353  0.68050893  0.08084617    -0.08800
C2698       C  0.44264380  0.70561634  0.09124169     0.30100
F2699       F  0.43591756  0.72103245  0.11833827    -0.19300
H2700       H  0.48443606  0.73269856  0.08344237     0.18500
H2701       H  0.41468629  0.64651544  0.04398105     0.18500
F2702       F  0.46251031  0.65835459  0.00805676    -0.19300
C2703       C  0.57655757  0.76644958  0.07040554    -0.20700
C2704       C  0.57424399  0.75914045  0.03850797    -0.08700
C2705       C  0.58967874  0.77800901  0.01627529     0.30100
C2706       C  0.60591039  0.80509306  0.02598995    -0.20700
C2707       C  0.60694107  0.81308924  0.05779558    -0.08800
C2708       C  0.59318692  0.79313951  0.08010415     0.30100
F2709       F  0.59536727  0.79992717  0.11113021    -0.19300
H2710       H  0.56534339  0.75152264  0.08773477     0.18500
H2711       H  0.61731933  0.81994743  0.00883147     0.18500
F2712       F  0.58786795  0.77102081  0.98527594    -0.19300
C2713       C  0.60940185  0.63751846  0.95580070    -0.20700
C2714       C  0.58883166  0.62064666  0.93602100    -0.08700
C2715       C  0.55643475  0.61936404  0.94256532     0.30100
C2716       C  0.54423385  0.63819100  0.96639688    -0.20700
C2717       C  0.56441394  0.65826413  0.98365121    -0.08800
C2718       C  0.59732259  0.65627952  0.97956837     0.30100
F2719       F  0.61767882  0.67397526  0.99705641    -0.19300
H2720       H  0.63452860  0.63862082  0.95089471     0.18500
H2721       H  0.51882765  0.63892498  0.96958828     0.18500
F2722       F  0.53642476  0.60279316  0.92369574    -0.19300
C2723       C  0.67165099  0.45713530  0.05538275    -0.20700
C2724       C  0.65545469  0.43803805  0.03375257    -0.08700
C2725       C  0.66394446  0.43837390  0.00208943     0.30100
C2726       C  0.69031889  0.45563275  0.99258990    -0.20700
C2727       C  0.70848806  0.47215786  0.01481278    -0.08800
C2728       C  0.69825604  0.47396014  0.04607256     0.30100
F2729       F  0.71454376  0.49105624  0.06780940    -0.19300
H2730       H  0.66527773  0.45675690  0.07992445     0.18500
H2731       H  0.69765559  0.45450292  0.96834225     0.18500
F2732       F  0.64819356  0.42007628  0.98100506    -0.19300
C2733       C  0.82227061  0.54183981  0.05022375    -0.20700
C2734       C  0.81139770  0.51089541  0.04529249    -0.08700
C2735       C  0.81733289  0.48741824  0.06791924     0.30100
C2736       C  0.83260268  0.49538518  0.09585682    -0.20700
C2737       C  0.84188648  0.52671782  0.10134917    -0.08800
C2738       C  0.83732941  0.54979046  0.07809121     0.30100
F2739       F  0.84724990  0.58010487  0.08254261    -0.19300
H2740       H  0.81763221  0.56029214  0.03324425     0.18500
H2741       H  0.83719061  0.47725394  0.11317818     0.18500
F2742       F  0.80794470  0.45699566  0.06317052    -0.19300
C2743       C  0.74114456  0.58760632  0.92484845    -0.20700
C2744       C  0.73341468  0.57172061  0.89704258    -0.08700
C2745       C  0.74605601  0.54161730  0.89093964     0.30100
C2746       C  0.76196653  0.52560418  0.91470976    -0.20700
C2747       C  0.76569979  0.53986641  0.94414780    -0.08800
C2748       C  0.75730590  0.57173871  0.94848710     0.30100
F2749       F  0.75998567  0.58571834  0.97705162    -0.19300
H2750       H  0.73135857  0.61083722  0.92962972     0.18500
H2751       H  0.76809123  0.50090765  0.91132848     0.18500
F2752       F  0.73923180  0.52613810  0.86382656    -0.19300
C2753       C  0.59003583  0.52424423  0.31728692    -0.20700
C2754       C  0.59604612  0.55630732  0.31047256    -0.08700
C2755       C  0.58611179  0.56880518  0.28161409     0.30100
C2756       C  0.56735025  0.55062368  0.26175298    -0.20700
C2757       C  0.55808806  0.52006899  0.27044508    -0.08800
C2758       C  0.57098777  0.50605578  0.29728014     0.30100
F2759       F  0.56267964  0.47618639  0.30563082    -0.19300
H2760       H  0.59762371  0.51433102  0.33942192     0.18500
H2761       H  0.55752846  0.56147670  0.24090263     0.18500
F2762       F  0.59094240  0.59973388  0.27440502    -0.19300
C2763       C  0.66965907  0.71364059  0.29401460    -0.20700
C2764       C  0.68025077  0.69704751  0.32029792    -0.08700
C2765       C  0.71121260  0.70117884  0.33144177     0.30100
C2766       C  0.73190708  0.72084444  0.31565573    -0.20700
C2767       C  0.72217698  0.73605719  0.28817555    -0.08800
C2768       C  0.69054643  0.73323249  0.27789563     0.30100
F2769       F  0.68050398  0.74727836  0.25110542    -0.19300
H2770       H  0.64544003  0.71113649  0.28593522     0.18500
H2771       H  0.75621668  0.72256706  0.32371187     0.18500
F2772       F  0.72134765  0.68583249  0.35750397    -0.19300
C2773       C  0.82252374  0.69563957  0.20132186    -0.20700
C2774       C  0.81167565  0.70120417  0.23180208    -0.08700
C2775       C  0.81654317  0.67775128  0.25497626     0.30100
C2776       C  0.83028683  0.64885648  0.24714082    -0.20700
C2777       C  0.83986375  0.64307472  0.21646094    -0.08800
C2778       C  0.83664372  0.66688782  0.19371147     0.30100
F2779       F  0.84758398  0.66237129  0.16418939    -0.19300
H2780       H  0.81925276  0.71309666  0.18307474     0.18500
H2781       H  0.83395642  0.63115010  0.26509675     0.18500
F2782       F  0.80763765  0.68236258  0.28515694    -0.19300
C2783       C  0.71747936  0.79633710  0.18930295    -0.20700
C2784       C  0.75005955  0.79187409  0.19372521    -0.08700
C2785       C  0.77165730  0.80770298  0.17421498     0.30100
C2786       C  0.76044829  0.82898134  0.15155298    -0.20700
C2787       C  0.72773875  0.83382370  0.14809165    -0.08800
C2788       C  0.70641505  0.81697021  0.16677430     0.30100
F2789       F  0.67474589  0.82216004  0.16451807    -0.19300
H2790       H  0.70032237  0.78416577  0.20369811     0.18500
H2791       H  0.77706006  0.84250699  0.13770260     0.18500
F2792       F  0.80331163  0.80391618  0.17821335    -0.19300
C2793       C  0.29476669  0.60347937  0.98981893    -0.20700
C2794       C  0.32567301  0.59130812  0.99048306    -0.08700
C2795       C  0.33189350  0.56352886  0.00729441     0.30100
C2796       C  0.30672011  0.54598789  0.01955606    -0.20700
C2797       C  0.27523402  0.55628151  0.01534340    -0.08800
C2798       C  0.26977217  0.58637088  0.00243199     0.30100
F2799       F  0.24003102  0.59823283  0.99976479    -0.19300
H2800       H  0.28959831  0.62523831  0.97741822     0.18500
H2801       H  0.31176323  0.52322837  0.03007316     0.18500
F2802       F  0.36186096  0.55219781  0.00958220    -0.19300
C2803       C  0.18794779  0.52021326  0.94467549    -0.20700
C2804       C  0.17615817  0.51562734  0.97505159    -0.08700
C2805       C  0.14617384  0.50195312  0.97903542     0.30100
C2806       C  0.13032074  0.48914939  0.95322350    -0.20700
C2807       C  0.14470985  0.48932008  0.92363733    -0.08800
C2808       C  0.17255729  0.50657261  0.91904497     0.30100
F2809       F  0.18669214  0.50691490  0.89058486    -0.19300
H2810       H  0.21117518  0.53050525  0.94119400     0.18500
H2811       H  0.10863173  0.47597767  0.95686291     0.18500
F2812       F  0.13404222  0.49785083  0.00812924    -0.19300
C2813       C  0.27007686  0.43873188  0.03286087    -0.20700
C2814       C  0.24012254  0.45019808  0.04105219    -0.08700
C2815       C  0.22021432  0.43190832  0.06000111     0.30100
C2816       C  0.23210764  0.40460209  0.07420401    -0.20700
C2817       C  0.26374202  0.39582376  0.06939705    -0.08800
C2818       C  0.28178597  0.41143648  0.04666951     0.30100
F2819       F  0.31242392  0.40322677  0.04160374    -0.19300
H2820       H  0.28528137  0.45215418  0.01740265     0.18500
H2821       H  0.21796828  0.39238650  0.09141147     0.18500
F2822       F  0.19085032  0.44227962  0.06745638    -0.19300
C2823       C  0.56509581  0.52123537  0.81974198    -0.20700
C2824       C  0.55745988  0.49537669  0.80013837    -0.08700
C2825       C  0.57757965  0.46901466  0.79939413     0.30100
C2826       C  0.60214333  0.46674235  0.82112182    -0.20700
C2827       C  0.60717643  0.49088602  0.84339844    -0.08800
C2828       C  0.58977569  0.51897471  0.84141083     0.30100
F2829       F  0.59410404  0.54245887  0.86276482    -0.19300
H2830       H  0.54995757  0.54192909  0.82045985     0.18500
H2831       H  0.61510177  0.44466994  0.82270270     0.18500
F2832       F  0.57093130  0.44362887  0.78090770    -0.19300
C2833       C  0.41817947  0.52533237  0.80467445    -0.20700
C2834       C  0.44601428  0.51326734  0.81815018    -0.08700
C2835       C  0.45181432  0.51760416  0.85028432     0.30100
C2836       C  0.43189655  0.53671555  0.86783848    -0.20700
C2837       C  0.40657802  0.55225775  0.85339064    -0.08800
C2838       C  0.39864649  0.54523889  0.82214908     0.30100
F2839       F  0.37443782  0.56054379  0.80770857    -0.19300
H2840       H  0.41325609  0.52198279  0.77997277     0.18500
H2841       H  0.43825636  0.54218756  0.89186046     0.18500
F2842       F  0.47810003  0.50549382  0.86416289    -0.19300
C2843       C  0.45362777  0.46955404  0.70684992    -0.20700
C2844       C  0.47682886  0.45504539  0.72533556    -0.08700
C2845       C  0.48493556  0.42319221  0.72000744     0.30100
C2846       C  0.46887494  0.40582668  0.69685885    -0.20700
C2847       C  0.44468444  0.42030462  0.67947245    -0.08800
C2848       C  0.43742167  0.45229792  0.68434864     0.30100
F2849       F  0.41429163  0.46666775  0.66740336    -0.19300
H2850       H  0.44700307  0.49402561  0.71092477     0.18500
H2851       H  0.47470150  0.38115586  0.69293009     0.18500
F2852       F  0.50668051  0.40851561  0.73837470    -0.19300
C2853       C  0.53042770  0.33011921  0.91320455    -0.20700
C2854       C  0.51157418  0.33364028  0.94001009    -0.08700
C2855       C  0.51932066  0.35748138  0.96201134     0.30100
C2856       C  0.54662429  0.37585522  0.95798714    -0.20700
C2857       C  0.56607309  0.37082349  0.93196176    -0.08800
C2858       C  0.55742112  0.34837806  0.90925068     0.30100
F2859       F  0.57561342  0.34360820  0.88352683    -0.19300
H2860       H  0.52482837  0.31254798  0.89548597     0.18500
H2861       H  0.55302054  0.39346061  0.97541440     0.18500
F2862       F  0.50140039  0.36229256  0.98787622    -0.19300
C2863       C  0.40882908  0.26938477  0.01585423    -0.20700
C2864       C  0.41873061  0.29626218  0.99904045    -0.08700
C2865       C  0.40902423  0.32646342  0.00895666     0.30100
C2866       C  0.39135300  0.32973917  0.03620399    -0.20700
C2867       C  0.38314942  0.30308548  0.05395909    -0.08800
C2868       C  0.39133168  0.27276246  0.04338222     0.30100
F2869       F  0.38333243  0.24672892  0.06016056    -0.19300
H2870       H  0.41592154  0.24586355  0.00851774     0.18500
H2871       H  0.38472607  0.35325441  0.04403952     0.18500
F2872       F  0.41684636  0.35280535  0.99252992    -0.19300
C2873       C  0.48514639  0.18986342  0.88385478    -0.20700
C2874       C  0.45502185  0.17973177  0.87417658    -0.08700
C2875       C  0.42811006  0.19698405  0.88317528     0.30100
C2876       C  0.43110905  0.22348356  0.90213013    -0.20700
C2877       C  0.46093713  0.23351159  0.91230716    -0.08800
C2878       C  0.48819462  0.21695435  0.90269178     0.30100
F2879       F  0.51736931  0.22591078  0.91286757    -0.19300
H2880       H  0.50593659  0.17620468  0.87780167     0.18500
H2881       H  0.40993976  0.23605771  0.90915904     0.18500
F2882       F  0.39862743  0.18683915  0.87532499    -0.19300
C2883       C  0.30701480  0.20736042  0.76435297    -0.20700
C2884       C  0.30240875  0.22669696  0.79089413    -0.08700
C2885       C  0.31583911  0.21783684  0.81970560     0.30100
C2886       C  0.33385963  0.19044777  0.82167799    -0.20700
C2887       C  0.33901126  0.17168936  0.79509731    -0.08800
C2888       C  0.32528020  0.17990303  0.76642852     0.30100
F2889       F  0.32996644  0.16171774  0.74060504    -0.19300
H2890       H  0.29685048  0.21374851  0.74192897     0.18500
H2891       H  0.34414315  0.18388131  0.84399600     0.18500
F2892       F  0.31293112  0.23628833  0.84563046    -0.19300
C2893       C  0.28580528  0.36780204  0.69944488    -0.20700
C2894       C  0.29788275  0.35049878  0.67423741    -0.08700
C2895       C  0.29609479  0.31734902  0.67403950     0.30100
C2896       C  0.28520270  0.30153035  0.70025871    -0.20700
C2897       C  0.27650939  0.31858032  0.72711724    -0.08800
C2898       C  0.27511911  0.35197494  0.72595228     0.30100
F2899       F  0.26665899  0.36945846  0.75129018    -0.19300
H2900       H  0.28746242  0.39342053  0.69971441     0.18500
H2901       H  0.28599707  0.27587669  0.70035352     0.18500
F2902       F  0.30854888  0.30029004  0.65006133    -0.19300
C2903       C  0.19815278  0.31273024  0.87006876    -0.20700
C2904       C  0.19331304  0.34533634  0.86641408    -0.08700
C2905       C  0.21634046  0.36390174  0.85145626     0.30100
C2906       C  0.24151135  0.34924499  0.83655177    -0.20700
C2907       C  0.24363932  0.31610533  0.83609874    -0.08800
C2908       C  0.22343187  0.29802710  0.85504714     0.30100
F2909       F  0.22536005  0.26594258  0.85555023    -0.19300
H2910       H  0.18061031  0.29834277  0.88181262     0.18500
H2911       H  0.25732629  0.36354312  0.82251434     0.18500
F2912       F  0.21227525  0.39557876  0.84763006    -0.19300
C2913       C  0.46377510  0.76380394  0.54381979    -0.20700
C2914       C  0.49527433  0.76984547  0.53572813    -0.08700
C2915       C  0.51404505  0.78941335  0.55500894     0.30100
C2916       C  0.50017907  0.80608010  0.57961032    -0.20700
C2917       C  0.46763440  0.80315328  0.58498288    -0.08800
C2918       C  0.44977183  0.78093416  0.56789817     0.30100
F2919       F  0.41819588  0.77782788  0.57286964    -0.19300
H2920       H  0.44888485  0.74917475  0.52892934     0.18500
H2921       H  0.51421714  0.82295600  0.59283352     0.18500
F2922       F  0.54474063  0.79522818  0.54764253    -0.19300
C2923       C  0.35104171  0.97114853  0.53506570    -0.20700
C2924       C  0.32928930  0.94964266  0.52178056    -0.08700
C2925       C  0.33374070  0.91696071  0.52596767     0.30100
C2926       C  0.35749575  0.90633863  0.54597480    -0.20700
C2927       C  0.37645164  0.92818231  0.56231346    -0.08800
C2928       C  0.37449714  0.96048806  0.55544113     0.30100
F2929       F  0.39241461  0.98181434  0.57147523    -0.19300
H2930       H  0.34827249  0.99643407  0.53180383     0.18500
H2931       H  0.35890164  0.88128641  0.55130376     0.18500
F2932       F  0.31418027  0.89545064  0.51218977    -0.19300
C2933       C  0.27949536  0.02841414  0.42502171    -0.20700
C2934       C  0.28158030  0.03077020  0.45769251    -0.08700
C2935       C  0.29454090  0.05793809  0.47169948     0.30100
C2936       C  0.30767612  0.08143677  0.45308829    -0.20700
C2937       C  0.30822743  0.07769696  0.42051646    -0.08800
C2938       C  0.29293482  0.05184335  0.40636714     0.30100
F2939       F  0.29259567  0.04852230  0.37475551    -0.19300
H2940       H  0.26980219  0.00731434  0.41407258     0.18500
H2941       H  0.31912470  0.10162263  0.46407731     0.18500
F2942       F  0.29624398  0.06068581  0.50333811    -0.19300
C2943       C  0.21828119  0.90661254  0.49480666    -0.20700
C2944       C  0.21781277  0.93940503  0.48894502    -0.08700
C2945       C  0.18981666  0.95327107  0.47734444     0.30100
C2946       C  0.16454250  0.93414412  0.46816985    -0.20700
C2947       C  0.16676641  0.90107985  0.47030642    -0.08800
C2948       C  0.19291128  0.88748806  0.48547316     0.30100
F2949       F  0.19533060  0.85555297  0.48811226    -0.19300
H2950       H  0.23923924  0.89534446  0.50425290     0.18500
H2951       H  0.14430414  0.94499674  0.45682611     0.18500
F2952       F  0.18754199  0.98501413  0.47274308    -0.19300
C2953       C  0.52809816  0.84819670  0.38908540    -0.20700
C2954       C  0.55086548  0.86733176  0.40366724    -0.08700
C2955       C  0.55117105  0.87032152  0.43640895     0.30100
C2956       C  0.53398909  0.84886923  0.45429275    -0.20700
C2957       C  0.51664850  0.82480413  0.43926065    -0.08800
C2958       C  0.51104478  0.82671916  0.40680896     0.30100
F2959       F  0.49242393  0.80529801  0.39167311    -0.19300
H2960       H  0.52722181  0.84616283  0.36380147     0.18500
H2961       H  0.53761523  0.84860551  0.47940609     0.18500
F2962       F  0.57240003  0.88974117  0.45078512    -0.19300
C2963       C  0.55247079  0.94212959  0.22233254    -0.20700
C2964       C  0.55473427  0.97405501  0.23149789    -0.08700
C2965       C  0.57951693  0.98374079  0.25133639     0.30100
C2966       C  0.59939332  0.96120897  0.26468613    -0.20700
C2967       C  0.59416301  0.92886733  0.25897030    -0.08800
C2968       C  0.57202443  0.91945002  0.23628881     0.30100
F2969       F  0.56733810  0.88825873  0.23000631    -0.19300
H2970       H  0.53341929  0.93432120  0.20709380     0.18500
H2971       H  0.61657500  0.96867630  0.28213678     0.18500
F2972       F  0.58243064  0.01454205  0.26022087    -0.19300
C2973       C  0.41215084  0.02576157  0.14846682    -0.20700
C2974       C  0.41065895  0.99643879  0.13343210    -0.08700
C2975       C  0.43759571  0.97683181  0.13252363     0.30100
C2976       C  0.46422058  0.98455021  0.15031553    -0.20700
C2977       C  0.46404232  0.01183089  0.16905717    -0.08800
C2978       C  0.43900419  0.03376496  0.16585092     0.30100
F2979       F  0.43920510  0.06156081  0.18194567    -0.19300
H2980       H  0.39190500  0.04148112  0.14828337     0.18500
H2981       H  0.48335283  0.96756856  0.15196772     0.18500
F2982       F  0.43688998  0.94876540  0.11688018    -0.19300
C2983       C  0.48714231  0.05319195  0.30150812    -0.20700
C2984       C  0.47033423  0.03567897  0.27900522    -0.08700
C2985       C  0.43721121  0.03295951  0.28122786     0.30100
C2986       C  0.42091495  0.05078652  0.30324823    -0.20700
C2987       C  0.43749576  0.07123424  0.32324224    -0.08800
C2988       C  0.47068045  0.07091775  0.32374008     0.30100
F2989       F  0.48687688  0.08924350  0.34439533    -0.19300
H2990       H  0.51269948  0.05496756  0.30045143     0.18500
H2991       H  0.39526175  0.05060476  0.30303693     0.18500
F2992       F  0.42048882  0.01450669  0.26094249    -0.19300
C2993       C  0.50119038  0.68660017  0.43195073    -0.20700
C2994       C  0.48505265  0.71533761  0.43527092    -0.08700
C2995       C  0.45733077  0.72096262  0.41802231     0.30100
C2996       C  0.44494515  0.69751387  0.39871301    -0.20700
C2997       C  0.46018672  0.66821099  0.39612927    -0.08800
C2998       C  0.48884322  0.66307643  0.41224193     0.30100
F2999       F  0.50405404  0.63497881  0.40976083    -0.19300
H3000       H  0.52311937  0.68246037  0.44451658     0.18500
H3001       H  0.42254903  0.70164171  0.38696908     0.18500
F3002       F  0.44166706  0.74890825  0.42076228    -0.19300
C3003       C  0.21328712  0.77389011  0.31545673    -0.20700
C3004       C  0.22449852  0.79433597  0.29203787    -0.08700
C3005       C  0.21074827  0.82465038  0.28864455     0.30100
C3006       C  0.18726900  0.83445367  0.30884591    -0.20700
C3007       C  0.17659592  0.81428245  0.33225523    -0.08800
C3008       C  0.18915397  0.78376731  0.33541813     0.30100
F3009       F  0.17796054  0.76373589  0.35757321    -0.19300
H3010       H  0.22319321  0.75042371  0.31835171     0.18500
H3011       H  0.17712071  0.85787138  0.30617631     0.18500
F3012       F  0.22006799  0.84533169  0.26622474    -0.19300
C3013       C  0.34756559  0.68128263  0.25961128    -0.20700
C3014       C  0.35053200  0.67510056  0.29163874    -0.08700
C3015       C  0.33835780  0.69638637  0.31376344     0.30100
C3016       C  0.32160016  0.72271940  0.30386874    -0.20700
C3017       C  0.31705675  0.72819592  0.27186093    -0.08800
C3018       C  0.33093758  0.70797600  0.24963411     0.30100
F3019       F  0.32680490  0.71296998  0.21851999    -0.19300
H3020       H  0.35728539  0.66506720  0.24252964     0.18500
H3021       H  0.31152275  0.73849058  0.32123107     0.18500
F3022       F  0.34146058  0.69078994  0.34492565    -0.19300
C3023       C  0.31854413  0.84094741  0.16156959    -0.20700
C3024       C  0.30860776  0.87216542  0.16786718    -0.08700
C3025       C  0.29393017  0.87941059  0.19616049     0.30100
C3026       C  0.28803363  0.85543299  0.21742330    -0.20700
C3027       C  0.29652184  0.82392490  0.21063315    -0.08800
C3028       C  0.31255918  0.81680954  0.18290193     0.30100
F3029       F  0.32093012  0.78658464  0.17578631    -0.19300
H3030       H  0.33023334  0.83524760  0.13973970     0.18500
H3031       H  0.27625090  0.86149206  0.23909392     0.18500
F3032       F  0.28441601  0.90939856  0.20270894    -0.19300
C3033       C  0.94959693  0.96660161  0.67376782    -0.20700
C3034       C  0.95301241  0.99701397  0.68665309    -0.08700
C3035       C  0.92767165  0.01880817  0.68414512     0.30100
C3036       C  0.89953989  0.00994434  0.66937862    -0.20700
C3037       C  0.89621687  0.97938401  0.65734856    -0.08800
C3038       C  0.92139441  0.95777595  0.65937455     0.30100
F3039       F  0.91833679  0.92787101  0.64789959    -0.19300
H3040       H  0.96833015  0.94921341  0.67567525     0.18500
H3041       H  0.88025799  0.02674456  0.66758557     0.18500
F3042       F  0.92965629  0.04846964  0.69639969    -0.19300
C3043       C  0.08391823  0.97164038  0.74073429    -0.20700
C3044       C  0.05207191  0.96375036  0.73575793    -0.08700
C3045       C  0.04085634  0.93370391  0.74440705     0.30100
C3046       C  0.06052980  0.91312646  0.76085886    -0.20700
C3047       C  0.09148951  0.92226136  0.76852079    -0.08800
C3048       C  0.10374026  0.95085629  0.75684601     0.30100
F3049       F  0.13363344  0.96025662  0.76412821    -0.19300
H3050       H  0.09269265  0.99486782  0.73435572     0.18500
H3051       H  0.05083711  0.89125445  0.76996790     0.18500
F3052       F  0.00984359  0.92599479  0.74070286    -0.19300
C3053       C  0.99473416  0.04440819  0.80397905    -0.20700
C3054       C  0.99488923  0.05565928  0.77302470    -0.08700
C3055       C  0.97859565  0.08358820  0.76557018     0.30100
C3056       C  0.96011068  0.09836655  0.78800909    -0.20700
C3057       C  0.95769547  0.08558107  0.81814127    -0.08800
C3058       C  0.97597212  0.05929177  0.82654001     0.30100
F3059       F  0.97446172  0.04732957  0.85593647    -0.19300
H3060       H  0.00673387  0.02256792  0.80994947     0.18500
H3061       H  0.94654251  0.11914610  0.78157091     0.18500
F3062       F  0.97823692  0.09481514  0.73579846    -0.19300
C3063       C  0.94093244  0.74336925  0.89396679    -0.20700
C3064       C  0.92444019  0.75316477  0.92079327    -0.08700
C3065       C  0.90059666  0.73345296  0.93319898     0.30100
C3066       C  0.89476225  0.70394775  0.91992530    -0.20700
C3067       C  0.91202095  0.69405914  0.89391349    -0.08800
C3068       C  0.93464701  0.71406050  0.88048071     0.30100
F3069       F  0.95036032  0.70525612  0.85419183    -0.19300
H3070       H  0.95898266  0.75816213  0.88354619     0.18500
H3071       H  0.87640478  0.68894921  0.92955115     0.18500
F3072       F  0.88282593  0.74240226  0.95804594    -0.19300
C3073       C  0.93090644  0.84572097  0.03064044    -0.20700
C3074       C  0.91599653  0.82405403  0.01046680    -0.08700
C3075       C  0.88710490  0.80985276  0.01948778     0.30100
C3076       C  0.87359437  0.81737499  0.04813927    -0.20700
C3077       C  0.88849461  0.83921137  0.06773342    -0.08800
C3078       C  0.91716583  0.85339695  0.05904989     0.30100
F3079       F  0.93150779  0.87502690  0.07801836    -0.19300
H3080       H  0.95312532  0.85684860  0.02445934     0.18500
H3081       H  0.85126453  0.80674587  0.05479464     0.18500
F3082       F  0.87135781  0.78934625  0.00051863    -0.19300
C3083       C  0.01999289  0.85388684  0.95211049    -0.20700
C3084       C  0.99761630  0.84177077  0.93074211    -0.08700
C3085       C  0.00427772  0.84201153  0.89856968     0.30100
C3086       C  0.03356214  0.85228334  0.88819310    -0.20700
C3087       C  0.05656032  0.86289298  0.90957012    -0.08800
C3088       C  0.04948117  0.86432791  0.94157162     0.30100
F3089       F  0.07135161  0.87490121  0.96250303    -0.19300
H3090       H  0.01527913  0.85378691  0.97701252     0.18500
H3091       H  0.03869598  0.85109275  0.86338125     0.18500
F3092       F  0.98281360  0.83149181  0.87716084    -0.19300
C3093       C  0.80809810  0.02776546  0.93308824    -0.20700
C3094       C  0.77536701  0.03257363  0.93491944    -0.08700
C3095       C  0.75994165  0.05102966  0.91232047     0.30100
C3096       C  0.77790533  0.06736186  0.89013747    -0.20700
C3097       C  0.81119644  0.06555519  0.89094944    -0.08800
C3098       C  0.82596470  0.04390697  0.91111772     0.30100
F3099       F  0.85799466  0.04157647  0.91246725    -0.19300
H3100       H  0.82011588  0.01286749  0.94998453     0.18500
H3101       H  0.76628168  0.08421488  0.87487799     0.18500
F3102       F  0.72824610  0.05592977  0.91385621    -0.19300
C3103       C  0.69787854  0.93019213  0.99865541    -0.20700
C3104       C  0.70384102  0.95267863  0.97504296    -0.08700
C3105       C  0.69269020  0.94658867  0.94443782     0.30100
C3106       C  0.67672466  0.91858384  0.93774998    -0.20700
C3107       C  0.67194711  0.89576044  0.96099444    -0.08800
C3108       C  0.68221303  0.90181200  0.99166429     0.30100
F3109       F  0.67757042  0.88017810  0.01461602    -0.19300
H3110       H  0.70616496  0.93405898  0.02238432     0.18500
H3111       H  0.66814433  0.91449808  0.91412598     0.18500
F3112       F  0.69771222  0.96715264  0.92059225    -0.19300
C3113       C  0.81460560  0.00430426  0.03907020    -0.20700
C3114       C  0.78156702  0.00334709  0.04307934    -0.08700
C3115       C  0.76912770  0.99407903  0.07209494     0.30100
C3116       C  0.78942271  0.98288115  0.09544917    -0.20700
C3117       C  0.82198948  0.98009960  0.08962745    -0.08800
C3118       C  0.83469031  0.99219609  0.06196709     0.30100
F3119       F  0.86598413  0.98891581  0.05566697    -0.19300
H3120       H  0.82481299  0.01114772  0.01687419     0.18500
H3121       H  0.77943297  0.97330194  0.11674766     0.18500
F3122       F  0.73739241  0.99348092  0.07692418    -0.19300
C3123       C  0.82592751  0.70479146  0.72943679    -0.20700
C3124       C  0.79406257  0.69889990  0.73701263    -0.08700
C3125       C  0.78526418  0.66914439  0.74848710     0.30100
C3126       C  0.80861822  0.64724368  0.75624140    -0.20700
C3127       C  0.84076483  0.65544468  0.75351050    -0.08800
C3128       C  0.84932140  0.68336516  0.73811784     0.30100
F3129       F  0.88016574  0.69223169  0.73639183    -0.19300
H3130       H  0.83327381  0.72760990  0.72047614     0.18500
H3131       H  0.80176041  0.62567322  0.76813685     0.18500
F3132       F  0.75453968  0.66253859  0.75496290    -0.19300
C3133       C  0.67261190  0.79413295  0.81556992    -0.20700
C3134       C  0.67735789  0.77972716  0.84463819    -0.08700
C3135       C  0.70009791  0.75571442  0.84781738     0.30100
C3136       C  0.71834761  0.74675895  0.82189476    -0.20700
C3137       C  0.71379906  0.76174629  0.79285263    -0.08800
C3138       C  0.69026818  0.78509935  0.78986945     0.30100
F3139       F  0.68428596  0.79940745  0.76203099    -0.19300
H3140       H  0.65472934  0.81231179  0.81276331     0.18500
H3141       H  0.73652480  0.72891106  0.82470261     0.18500
F3142       F  0.70452536  0.74110579  0.87573062    -0.19300
C3143       C  0.75310719  0.83461262  0.70899629    -0.20700
C3144       C  0.77071818  0.80650404  0.70539026    -0.08700
C3145       C  0.79631765  0.80579023  0.68441916     0.30100
C3146       C  0.80320471  0.83229236  0.66671527    -0.20700
C3147       C  0.78495479  0.85972732  0.66975178    -0.08800
C3148       C  0.76027256  0.86121158  0.69124489     0.30100
F3149       F  0.74289592  0.88803214  0.69447861    -0.19300
H3150       H  0.73357053  0.83597261  0.72526785     0.18500
H3151       H  0.82260783  0.83139999  0.65020898     0.18500
F3152       F  0.81478023  0.77973054  0.68086547    -0.19300
loop_ 
_geom_bond_atom_site_label_1 
_geom_bond_atom_site_label_2 
_geom_bond_distance 
_geom_bond_site_symmetry_2 
_ccdc_geom_bond_type 
O1           C17   1.277       .  A
O1           Zn7   2.053       .  S
C2           O18   1.279       .  A
C2           O15   1.282       .  A
C2          C511   1.515       .  S
O3           C16   1.280       .  A
O3          Cd10   2.147       .  S
O4           C22   1.297       .  A
O4          Cd13   2.154       .  S
O5           C19   1.286       .  A
O5           Cd9   2.145       .  S
O6           C17   1.285       .  A
O6           Cd9   2.171       .  S
Zn7          O18   2.071       .  S
Zn7          O20   2.103       .  S
Zn7          O12   1.957       .  S
O8           C19   1.279       .  A
O8          Cd13   2.099       .  S
Cd9          O11   2.165       .  S
Cd9          O12   2.039       .  S
Cd10         O14   2.147       .  S
Cd10         O23   2.167       .  S
Cd10         O12   2.150       .  S
O11          C21   1.299       .  A
O12         Cd13   2.017       .  S
Cd13         O15   2.158       .  S
O14          C21   1.281       .  A
C16          O20   1.292       .  A
C16        C1012   1.541       .  S
C17        C1742   1.515       .  S
C19         C871   1.503       .  S
C21        C1372   1.533       .  S
C22          O23   1.281       .  A
C22        C1561   1.551       .  S
O24          C40   1.285       .  A
O24         Zn30   2.123       .  S
C25          O41   1.283       .  A
C25          O38   1.289       .  A
C25        C1743   1.540       .  S
O26          C39   1.275       .  A
O26         Cd33   2.126       .  S
O27          C45   1.300       .  A
O27         Cd36   2.166       .  S
O28          C42   1.286       .  A
O28         Cd32   2.142       .  S
O29          C40   1.282       .  A
O29         Cd32   2.130       .  S
Zn30         O41   2.086       .  S
Zn30         O43   2.152       .  S
Zn30         O35   1.969       .  S
O31          C42   1.290       .  A
O31         Cd36   2.199       .  S
Cd32         O34   2.189       .  S
Cd32         O35   2.023       .  S
Cd33         O37   2.138       .  S
Cd33         O46   2.104       .  S
Cd33         O35   2.145       .  S
O34          C44   1.302       .  A
O35         Cd36   2.066       .  S
Cd36         O38   2.196       .  S
O37          C44   1.274       .  A
C39          O43   1.301       .  A
C39        C1099   1.539       .  S
C40         C905   1.520       .  S
C42         C665   1.538       .  S
C44        C2079   1.546       .  S
C45          O46   1.276       .  A
C45        C1298   1.516       .  S
C47        C3124   1.465       .  S
C47          N48   1.364       .  A
C47          N52   1.352       .  A
N48          C49   1.360       .  A
C49        C3137   1.469       .  S
C49          N50   1.351       .  A
N50          C51   1.346       .  A
C51        C3144   1.465       .  S
C51          N52   1.348       .  A
C53        C3104   1.481       .  S
C53          N54   1.361   1_556  A
C53          N58   1.358       .  A
N54          C55   1.359   1_565  A
C55        C3114   1.471       .  S
C55          N56   1.352   1_554  A
N56          C57   1.352       .  A
C57        C3094   1.459       .  S
C57          N58   1.351   1_545  A
C59        C3074   1.466   1_556  S
C59          N60   1.350       .  A
C59          N64   1.359       .  A
N60          C61   1.348       .  A
C61        C3064   1.468       .  S
C61          N62   1.352       .  A
N62          C63   1.354       .  A
C63        C3084   1.465       .  S
C63          N64   1.356       .  A
C65        C3034   1.473   1_545  S
C65          N66   1.358   1_645  A
C65          N70   1.347       .  A
N66          C67   1.359       .  A
C67        C3044   1.460       .  S
C67          N68   1.359   1_565  A
N68          C69   1.354       .  A
C69        C3054   1.459   1_455  S
C69          N70   1.348   1_455  A
N71          C76   1.348       .  A
N71          C75   1.337       .  A
N71         H103   1.044       .  S
N72          C79   1.355       .  A
N72          C80   1.357       .  A
N73          C78   1.373       .  A
N73          C77   1.368       .  A
N73         H104   1.043       .  S
N74          C81   1.341       .  A
N74          C82   1.332       .  A
C75          C83   1.390       .  A
C75          C91   1.399       .  A
C76          C92   1.403       .  A
C76          C84   1.385       .  A
C77          C85   1.391       .  A
C77          C94   1.460       .  A
C78          C93   1.457       .  A
C78          C86   1.388       .  A
C79          C91   1.413       .  A
C79          C87   1.381       .  A
C80          C94   1.429       .  A
C80          C88   1.392       .  A
C81          C89   1.377       .  A
C81          C92   1.390       .  A
C82          C90   1.388       .  A
C82          C93   1.392       .  A
C83          C84   1.381       .  A
C83          H95   1.082       .  S
C84          H96   1.082       .  S
C85          C86   1.410       .  A
C85          H97   1.082       .  S
C86          H98   1.082       .  S
C87          C88   1.371       .  A
C87          H99   1.082       .  S
C88         H100   1.078       .  S
C89          C90   1.381       .  A
C89         H101   1.082       .  S
C90         H102   1.081       .  S
C91        C3087   1.474       .  S
C92        C3047   1.473       .  S
C93         C408   1.534       .  S
C94         C359   1.552       .  S
N105        C110   1.351       .  A
N105        C109   1.339       .  A
N105        H137   1.042       .  S
N106        C113   1.352       .  A
N106        C114   1.354       .  A
N107        C112   1.373       .  A
N107        C111   1.369       .  A
N107        H138   1.041       .  S
N108        C115   1.340       .  A
N108        C116   1.330       .  A
C109        C117   1.387       .  A
C109        C125   1.394       .  A
C110        C126   1.408       .  A
C110        C118   1.387       .  A
C111        C119   1.389       .  A
C111        C128   1.458       .  A
C112        C127   1.461       .  A
C112        C120   1.390       .  A
C113        C125   1.405       .  A
C113        C121   1.383       .  A
C114        C128   1.415       .  A
C114        C122   1.391       .  A
C115        C123   1.382       .  A
C115        C126   1.392       .  A
C116        C124   1.392       .  A
C116        C127   1.394       .  A
C117        C118   1.375       .  A
C117        H129   1.082       .  S
C118        H130   1.082       .  S
C119        C120   1.408       .  A
C119        H131   1.082       .  S
C120        H132   1.082       .  S
C121        C122   1.362       .  A
C121        H133   1.083       .  S
C122        H134   1.082       .  S
C123        C124   1.378       .  A
C123        H135   1.082   1_565  S
C124        H136   1.082   1_565  S
C125       C3077   1.457       .  S
C126       C3117   1.470       .  S
C127        C725   1.529       .  S
C128        C454   1.532       .  S
N139        C144   1.344       .  A
N139        C143   1.339       .  A
N139        H171   1.045       .  S
N140        C147   1.350       .  A
N140        C148   1.349       .  A
N141        C146   1.372       .  A
N141        C145   1.369       .  A
N141        H172   1.041       .  S
N142        C149   1.347       .  A
N142        C150   1.341       .  A
C143        C151   1.388       .  A
C143        C159   1.393       .  A
C144        C160   1.396       .  A
C144        C152   1.387       .  A
C145        C153   1.391       .  A
C145        C162   1.462       .  A
C146        C161   1.461       .  A
C146        C154   1.390       .  A
C147        C159   1.395       .  A
C147        C155   1.380       .  A
C148        C162   1.416       .  A
C148        C156   1.390       .  A
C149        C157   1.377   1_565  A
C149        C160   1.389       .  A
C150        C158   1.385       .  A
C150        C161   1.402       .  A
C151        C152   1.376       .  A
C151        H163   1.082       .  S
C152        H164   1.082       .  S
C153        C154   1.411       .  A
C153        H165   1.082       .  S
C154        H166   1.082       .  S
C155        C156   1.367       .  A
C155        H167   1.083       .  S
C156        H168   1.080       .  S
C157        C158   1.374   1_545  A
C157        H169   1.081       .  S
C158        H170   1.081   1_565  S
C159       C3147   1.455       .  S
C160       C3037   1.465       .  S
C161       C1256   1.542       .  S
C162        C434   1.536       .  S
N173        C178   1.341       .  A
N173        C177   1.352       .  A
N173        H205   1.042       .  S
N174        C181   1.343       .  A
N174        C182   1.335       .  A
N175        C180   1.368       .  A
N175        C179   1.373       .  A
N175        H206   1.040       .  S
N176        C183   1.354       .  A
N176        C184   1.355       .  A
C177        C185   1.388       .  A
C177        C193   1.407       .  A
C178        C194   1.396       .  A
C178        C186   1.387       .  A
C179        C187   1.389       .  A
C179        C196   1.459       .  A
C180        C195   1.459       .  A
C180        C188   1.390       .  A
C181        C193   1.388       .  A
C181        C189   1.381       .  A
C182        C196   1.397       .  A
C182        C190   1.391       .  A
C183        C191   1.382       .  A
C183        C194   1.407       .  A
C184        C192   1.390       .  A
C184        C195   1.420       .  A
C185        C186   1.367       .  A
C185        H197   1.081       .  S
C186        H198   1.083       .  S
C187        C188   1.408       .  A
C187        H199   1.082       .  S
C188        H200   1.082       .  S
C189        C190   1.372       .  A
C189        H201   1.083       .  S
C190        H202   1.082       .  S
C191        C192   1.364       .  A
C191        H203   1.082       .  S
C192        H204   1.082       .  S
C193       C3127   1.472       .  S
C194       C3067   1.463       .  S
C195        C368   1.532       .  S
C196       C1233   1.529       .  S
N207        C212   1.348       .  A
N207        C211   1.347       .  A
N207        H239   1.043       .  S
N208        C215   1.356       .  A
N208        C216   1.353       .  A
N209        C214   1.372       .  A
N209        C213   1.365       .  A
N209        H240   1.040       .  S
N210        C217   1.348       .  A
N210        C218   1.346       .  A
C211        C219   1.387       .  A
C211        C227   1.402       .  A
C212        C228   1.407       .  A
C212        C220   1.387       .  A
C213        C221   1.391       .  A
C213        C230   1.455       .  A
C214        C229   1.457       .  A
C214        C222   1.389       .  A
C215        C227   1.404       .  A
C215        C223   1.377       .  A
C216        C230   1.429       .  A
C216        C224   1.399       .  A
C217        C225   1.381       .  A
C217        C228   1.394       .  A
C218        C226   1.389       .  A
C218        C229   1.410       .  A
C219        C220   1.377       .  A
C219        H231   1.082       .  S
C220        H232   1.082       .  S
C221        C222   1.406       .  A
C221        H233   1.082       .  S
C222        H234   1.082       .  S
C223        C224   1.359       .  A
C223        H235   1.083       .  S
C224        H236   1.079       .  S
C225        C226   1.368       .  A
C225        H237   1.080   1_556  S
C226        H238   1.083       .  S
C227       C3134   1.477       .  S
C228       C3107   1.475       .  S
C229        C474   1.540       .  S
C230        C337   1.517       .  S
N241        C246   1.348       .  A
N241        C245   1.343       .  A
N241        H273   1.041       .  S
N242        C249   1.356       .  A
N242        C250   1.356       .  A
N243        C248   1.373       .  A
N243        C247   1.364       .  A
N243        H274   1.040       .  S
N244        C251   1.342       .  A
N244        C252   1.339       .  A
C245        C253   1.387       .  A
C245        C261   1.404       .  A
C246        C262   1.407       .  A
C246        C254   1.387       .  A
C247        C255   1.390       .  A
C247        C264   1.456       .  A
C248        C263   1.460       .  A
C248        C256   1.390       .  A
C249        C261   1.414       .  A
C249        C257   1.384       .  A
C250        C264   1.419       .  A
C250        C258   1.389       .  A
C251        C259   1.380       .  A
C251        C262   1.393       .  A
C252        C260   1.388       .  A
C252        C263   1.397       .  A
C253        C254   1.383       .  A
C253        H265   1.082       .  S
C254        H266   1.082       .  S
C255        C256   1.411       .  A
C255        H267   1.082       .  S
C256        H268   1.082       .  S
C257        C258   1.361       .  A
C257        H269   1.082       .  S
C258        H270   1.081       .  S
C259        C260   1.369       .  A
C259        H271   1.078       .  S
C260        H272   1.082       .  S
C261       C3097   1.478       .  S
C262       C3057   1.469       .  S
C263       C1963   1.539       .  S
C264        C749   1.527       .  S
O275        C291   1.285       .  A
O275       Zn281   2.113       .  S
C276        O292   1.289       .  A
C276        O289   1.293       .  A
C276       C1795   1.550       .  S
O277        C290   1.279       .  A
O277       Cd284   2.151       .  S
O278        C296   1.308       .  A
O278       Cd287   2.224       .  S
O279        C293   1.286       .  A
O279       Cd283   2.146       .  S
O280        C291   1.284       .  A
O280       Cd283   2.163       .  S
Zn281       O292   2.129       .  S
Zn281       O294   2.147       .  S
Zn281       O286   1.978       .  S
O282        C293   1.291       .  A
O282       Cd287   2.195       .  S
Cd283       O285   2.178       .  S
Cd283       O286   2.050       .  S
Cd284       O288   2.143       .  S
Cd284       O297   2.143       .  S
Cd284       O286   2.160       .  S
O285        C295   1.300       .  A
O286       Cd287   2.066       .  S
Cd287       O289   2.215       .  S
O288        C295   1.278       .  A
C290        O294   1.301       .  A
C290       C1994   1.548       .  S
C291        C904   1.528       .  S
C293        C510   1.536       .  S
C295       C1064   1.541       .  S
C296        O297   1.281       .  A
C296       C1514   1.545       .  S
O298        C314   1.283       .  A
O298       Zn304   2.100       .  S
C299        O315   1.285       .  A
C299        O312   1.286       .  A
C299       C2039   1.534       .  S
O300        C313   1.275       .  A
O300       Cd307   2.138       .  S
O301        C319   1.306       .  A
O301       Cd310   2.199       .  S
O302        C316   1.282       .  A
O302       Cd306   2.139       .  S
O303        C314   1.285       .  A
O303       Cd306   2.154       .  S
Zn304       O315   2.079       .  S
Zn304       O317   2.140       .  S
Zn304       O309   1.964       .  S
O305        C316   1.289       .  A
O305       Cd310   2.160       .  S
Cd306       O308   2.169       .  S
Cd306       O309   2.036       .  S
Cd307       O311   2.116       .  S
Cd307       O320   2.119       .  S
Cd307       O309   2.145       .  S
O308        C318   1.299       .  A
O309       Cd310   2.051       .  S
Cd310       O312   2.206       .  S
O311        C318   1.278       .  A
C313        O317   1.300       .  A
C313        C664   1.542       .  S
C314       C1332   1.520       .  S
C316       C1601   1.521       .  S
C318        C870   1.526       .  S
C319        O320   1.275       .  A
C319       C1794   1.536       .  S
O321        C337   1.281       .  A
O321       Zn327   2.065       .  S
C322        O338   1.282       .  A
C322        O335   1.285       .  A
C322        C803   1.537       .  S
O323        C336   1.281       .  A
O323       Cd330   2.135       .  S
O324        C342   1.302       .  A
O324       Cd333   2.182       .  S
O325        C339   1.283       .  A
O325       Cd329   2.133       .  S
O326        C337   1.283       .  A
O326       Cd329   2.154       .  S
Zn327       O338   2.107       .  S
Zn327       O340   2.128       .  S
Zn327       O332   1.963       .  S
O328        C339   1.283       .  A
O328       Cd333   2.119       .  S
Cd329       O331   2.165       .  S
Cd329       O332   2.040       .  S
Cd330       O334   2.165       .  S
Cd330       O343   2.122       .  S
Cd330       O332   2.139       .  S
O331        C341   1.297       .  A
O332       Cd333   2.034       .  S
Cd333       O335   2.186       .  S
O334        C341   1.281       .  A
C336        O340   1.294       .  A
C336       C1133   1.538       .  S
C339        C630   1.504       .  S
C341       C1406   1.545       .  S
C342        O343   1.277       .  A
C342       C1560   1.529       .  S
O344        C360   1.282       .  A
O344       Zn350   2.076       .  S
C345        O361   1.283       .  A
C345        O358   1.286       .  A
C345       C2147   1.532       .  S
O346        C359   1.283       .  A
O346       Cd353   2.161       .  S
O347        C365   1.304       .  A
O347       Cd356   2.208       .  S
O348        C362   1.286       .  A
O348       Cd352   2.171   1_554  S
O349        C360   1.288       .  A
O349       Cd352   2.174       .  S
Zn350       O361   2.113   1_556  S
Zn350       O363   2.147       .  S
Zn350       O355   1.985   1_556  S
O351        C362   1.290       .  A
O351       Cd356   2.151       .  S
Cd352       O354   2.191       .  S
Cd352       O355   2.061   1_556  S
Cd353       O357   2.153       .  S
Cd353       O366   2.144       .  S
Cd353       O355   2.135   1_556  S
O354        C364   1.301       .  A
O355       Cd356   2.042       .  S
Cd356       O358   2.176       .  S
O357        C364   1.281       .  A
C359        O363   1.296       .  A
C360       C1703   1.520       .  S
C362       C1065   1.527       .  S
C364        C802   1.542       .  S
C365        O366   1.281   1_554  A
C365        C584   1.544       .  S
O367        C383   1.280       .  A
O367       Zn373   2.050   1_455  S
C368        O384   1.280       .  A
C368        O381   1.292       .  A
O369        C382   1.279       .  A
O369       Cd376   2.139   1_556  S
O370        C388   1.308       .  A
O370       Cd379   2.230   1_554  S
O371        C385   1.283       .  A
O371       Cd375   2.122   1_654  S
O372        C383   1.281       .  A
O372       Cd375   2.174       .  S
Zn373       O384   2.070       .  S
Zn373       O386   2.125   1_655  S
Zn373       O378   1.962       .  S
O374        C385   1.290       .  A
O374       Cd379   2.179   1_554  S
Cd375       O377   2.177   1_556  S
Cd375       O378   2.054   1_455  S
Cd376       O380   2.154       .  S
Cd376       O389   2.131   1_455  S
Cd376       O378   2.131   1_454  S
O377        C387   1.300       .  A
O378       Cd379   2.060       .  S
Cd379       O381   2.210       .  S
O380        C387   1.282       .  A
C382        O386   1.296       .  A
C382       C1702   1.534       .  S
C383        C972   1.528       .  S
C385       C1863   1.519       .  S
C387       C1993   1.545       .  S
C388        O389   1.279       .  A
C388       C1166   1.541       .  S
O390        C406   1.283       .  A
O390       Zn396   2.094       .  S
C391        O407   1.283       .  A
C391        O404   1.280       .  A
C391        C631   1.522       .  S
O392        C405   1.282       .  A
O392       Cd399   2.168       .  S
O393        C411   1.293       .  A
O393       Cd402   2.152       .  S
O394        C408   1.285       .  A
O394       Cd398   2.184       .  S
O395        C406   1.287       .  A
O395       Cd398   2.171   1_545  S
Zn396       O407   2.111   1_545  S
Zn396       O409   2.108       .  S
Zn396       O401   1.974   1_545  S
O397        C408   1.285       .  A
O397       Cd402   2.130       .  S
Cd398       O400   2.183   1_565  S
Cd398       O401   2.047       .  S
Cd399       O403   2.146       .  S
Cd399       O412   2.166   1_545  S
Cd399       O401   2.165   1_545  S
O400        C410   1.303       .  A
O401       Cd402   2.011       .  S
Cd402       O404   2.136       .  S
O403        C410   1.279       .  A
C405        O409   1.294       .  A
C405       C1333   1.546       .  S
C406        C938   1.522       .  S
C410       C2113   1.546       .  S
C411        O412   1.282       .  A
C411       C1668   1.551       .  S
O413        C429   1.286       .  A
O413       Zn419   2.116       .  S
C414        O430   1.289       .  A
C414        O427   1.286       .  A
C414       C1407   1.530       .  S
O415        C428   1.276       .  A
O415       Cd422   2.128       .  S
O416        C434   1.303       .  A
O416       Cd425   2.203       .  S
O417        C431   1.291       .  A
O417       Cd421   2.191       .  S
O418        C429   1.287       .  A
O418       Cd421   2.162       .  S
Zn419       O430   2.125       .  S
Zn419       O432   2.190       .  S
Zn419       O424   1.994       .  S
O420        C431   1.291       .  A
O420       Cd425   2.189       .  S
Cd421       O423   2.205       .  S
Cd421       O424   2.048       .  S
Cd422       O426   2.107       .  S
Cd422       O435   2.122       .  S
Cd422       O424   2.130       .  S
O423        C433   1.306       .  A
O424       Cd425   2.059       .  S
Cd425       O427   2.170       .  S
O426        C433   1.273       .  A
C428        O432   1.301       .  A
C428        C550   1.553       .  S
C429       C1013   1.525       .  S
C431       C1635   1.546       .  S
C433       C1897   1.531       .  S
C434        O435   1.279       .  A
O436        C452   1.285       .  A
O436       Zn442   2.117   1_455  S
C437        O453   1.287       .  A
C437        O450   1.287       .  A
C437       C1896   1.528       .  S
O438        C451   1.277       .  A
O438       Cd445   2.123       .  S
O439        C457   1.308       .  A
O439       Cd448   2.234       .  S
O440        C454   1.284       .  A
O440       Cd444   2.153       .  S
O441        C452   1.287       .  A
O441       Cd444   2.173   1_455  S
Zn442       O453   2.106       .  S
Zn442       O455   2.176   1_655  S
Zn442       O447   1.986       .  S
O443        C454   1.293       .  A
O443       Cd448   2.179       .  S
Cd444       O446   2.175   1_655  S
Cd444       O447   2.051       .  S
Cd445       O449   2.103       .  S
Cd445       O458   2.112   1_455  S
Cd445       O447   2.129   1_455  S
O446        C456   1.300       .  A
O447       Cd448   2.054       .  S
Cd448       O450   2.175       .  S
O449        C456   1.274       .  A
C451        O455   1.302       .  A
C451       C1515   1.537       .  S
C452        C698   1.532       .  S
C456       C2148   1.521       .  S
C457        O458   1.274       .  A
C457       C1167   1.539       .  S
O459        C475   1.279       .  A
O459       Zn465   2.056   1_545  S
C460        O476   1.282       .  A
C460        O473   1.289       .  A
C460       C1200   1.536       .  S
O461        C474   1.279       .  A
O461       Cd468   2.149       .  S
O462        C480   1.305       .  A
O462       Cd471   2.203       .  S
O463        C477   1.287       .  A
O463       Cd467   2.156   1_554  S
O464        C475   1.283       .  A
O464       Cd467   2.180       .  S
Zn465       O476   2.096   1_556  S
Zn465       O478   2.130       .  S
Zn465       O470   1.958       .  S
O466        C477   1.290       .  A
O466       Cd471   2.179   1_545  S
Cd467       O469   2.182       .  S
Cd467       O470   2.064   1_545  S
Cd468       O472   2.150       .  S
Cd468       O481   2.119       .  S
Cd468       O470   2.141       .  S
O469        C479   1.300       .  A
O470       Cd471   2.055   1_556  S
Cd471       O473   2.198       .  S
O472        C479   1.280   1_565  A
C474        O478   1.297       .  A
C475       C1474   1.532       .  S
C477       C2080   1.530       .  S
C479        C939   1.551       .  S
C480        O481   1.277   1_554  A
C480        C585   1.531       .  S
C482       C3027   1.457       .  S
C482        N483   1.345       .  A
C482        N487   1.355       .  A
N483        C484   1.344       .  A
C484       C3004   1.469       .  S
C484        N485   1.353       .  A
N485        C486   1.360       .  A
C486       C3017   1.456       .  S
C486        N487   1.358       .  A
N488        C493   1.337       .  A
N488        C492   1.346       .  A
N488        H520   1.040       .  S
N489        C496   1.348       .  A
N489        C497   1.342       .  A
N490        C495   1.371       .  A
N490        C494   1.368       .  A
N490        H521   1.042       .  S
N491        C498   1.354       .  A
N491        C499   1.351       .  A
C492        C500   1.386       .  A
C492        C508   1.403       .  A
C493        C509   1.395       .  A
C493        C501   1.387       .  A
C494        C502   1.390       .  A
C494        C511   1.457       .  A
C495        C510   1.458       .  A
C495        C503   1.390       .  A
C496        C508   1.402       .  A
C496        C504   1.384       .  A
C497        C511   1.395       .  A
C497        C505   1.389       .  A
C498        C506   1.384       .  A
C498        C509   1.409       .  A
C499        C507   1.378       .  A
C499        C510   1.410       .  A
C500        C501   1.381       .  A
C500        H512   1.082       .  S
C501        H513   1.082       .  S
C502        C503   1.410       .  A
C502        H514   1.082       .  S
C503        H515   1.082       .  S
C504        C505   1.368       .  A
C504        H516   1.082       .  S
C505        H517   1.082       .  S
C506        C507   1.366       .  A
C506        H518   1.082       .  S
C507        H519   1.071       .  S
C508       C2997   1.475       .  S
C509       C3014   1.463       .  S
C522       C2964   1.465       .  S
C522        N523   1.360   1_565  A
C522        N527   1.362       .  A
N523        C524   1.351       .  A
C524       C2984   1.462       .  S
C524        N525   1.347       .  A
N525        C526   1.350       .  A
C526       C2977   1.471       .  S
C526        N527   1.361   1_545  A
N528        C533   1.341       .  A
N528        C532   1.350       .  A
N528        H560   1.043       .  S
N529        C536   1.343       .  A
N529        C537   1.332       .  A
N530        C535   1.368       .  A
N530        C534   1.370       .  A
N530        H561   1.043       .  S
N531        C538   1.350       .  A
N531        C539   1.359       .  A
C532        C540   1.389       .  A
C532        C548   1.412       .  A
C533        C549   1.397       .  A
C533        C541   1.386       .  A
C534        C542   1.390       .  A
C534        C551   1.457       .  A
C535        C550   1.460       .  A
C535        C543   1.391       .  A
C536        C548   1.396       .  A
C536        C544   1.382       .  A
C537        C551   1.396       .  A
C537        C545   1.391       .  A
C538        C546   1.382       .  A
C538        C549   1.412       .  A
C539        C547   1.389       .  A
C539        C550   1.423       .  A
C540        C541   1.379       .  A
C540        H552   1.082       .  S
C541        H553   1.082       .  S
C542        C543   1.410       .  A
C542        H554   1.082       .  S
C543        H555   1.082       .  S
C544        C545   1.378       .  A
C544        H556   1.083       .  S
C545        H557   1.081       .  S
C546        C547   1.365       .  A
C546        H558   1.082       .  S
C547        H559   1.075       .  S
C548       C2967   1.473       .  S
C549       C2954   1.468       .  S
C551        C730   1.530       .  S
N562        C567   1.344       .  A
N562        C566   1.348       .  A
N562        H594   1.044       .  S
N563        C570   1.345       .  A
N563        C571   1.337       .  A
N564        C569   1.371       .  A
N564        C568   1.371       .  A
N564        H595   1.043       .  S
N565        C572   1.346       .  A
N565        C573   1.348       .  A
C566        C574   1.388       .  A
C566        C582   1.406       .  A
C567        C583   1.400       .  A
C567        C575   1.387       .  A
C568        C576   1.390       .  A
C568        C585   1.462       .  A
C569        C584   1.464       .  A
C569        C577   1.390       .  A
C570        C582   1.390       .  A
C570        C578   1.380   1_565  A
C571        C585   1.402       .  A
C571        C579   1.392       .  A
C572        C580   1.380       .  A
C572        C583   1.393       .  A
C573        C581   1.392       .  A
C573        C584   1.416       .  A
C574        C575   1.378       .  A
C574        H586   1.082       .  S
C575        H587   1.082       .  S
C576        C577   1.412       .  A
C576        H588   1.082   1_554  S
C577        H589   1.082       .  S
C578        C579   1.371   1_545  A
C578        H590   1.082       .  S
C579        H591   1.082   1_565  S
C580        C581   1.370       .  A
C580        H592   1.083       .  S
C581        H593   1.082       .  S
C582       C2974   1.472       .  S
C583       C3024   1.467       .  S
C596       C2944   1.478       .  S
C596        N597   1.359       .  A
C596        N601   1.360       .  A
N597        C598   1.352   1_565  A
C598       C2934   1.452       .  S
C598        N599   1.350   1_545  A
N599        C600   1.350       .  A
C600       C2924   1.467       .  S
C600        N601   1.359       .  A
C602       C2914   1.457       .  S
C602        N603   1.362       .  A
C602        N607   1.355       .  A
N603        C604   1.359       .  A
C604       C2994   1.454       .  S
C604        N605   1.348       .  A
N605        C606   1.348       .  A
C606       C2957   1.464       .  S
C606        N607   1.349       .  A
N608        C613   1.349       .  A
N608        C612   1.340       .  A
N608        H640   1.037       .  S
N609        C616   1.354       .  A
N609        C617   1.356       .  A
N610        C615   1.367       .  A
N610        C614   1.367       .  A
N610        H641   1.040       .  S
N611        C618   1.348       .  A
N611        C619   1.341       .  A
C612        C620   1.386       .  A
C612        C628   1.400       .  A
C613        C629   1.408       .  A
C613        C621   1.388       .  A
C614        C622   1.389       .  A
C614        C631   1.450       .  A
C615        C630   1.448       .  A
C615        C623   1.388       .  A
C616        C628   1.418       .  A
C616        C624   1.388       .  A
C617        C631   1.413       .  A
C617        C625   1.386       .  A
C618        C626   1.381       .  A
C618        C629   1.399       .  A
C619        C627   1.394       .  A
C619        C630   1.404       .  A
C620        C621   1.379       .  A
C620        H632   1.082       .  S
C621        H633   1.082       .  S
C622        C623   1.403       .  A
C622        H634   1.082       .  S
C623        H635   1.082       .  S
C624        C625   1.361       .  A
C624        H636   1.081       .  S
C625        H637   1.082       .  S
C626        C627   1.362       .  A
C626        H638   1.082       .  S
C627        H639   1.080       .  S
C628       C2927   1.468       .  S
C629       C2917   1.473       .  S
N642        C647   1.344       .  A
N642        C646   1.340       .  A
N642        H674   1.041       .  S
N643        C650   1.356       .  A
N643        C651   1.356       .  A
N644        C649   1.373       .  A
N644        C648   1.369       .  A
N644        H675   1.040       .  S
N645        C652   1.346       .  A
N645        C653   1.341       .  A
C646        C654   1.387       .  A
C646        C662   1.394       .  A
C647        C663   1.397       .  A
C647        C655   1.386       .  A
C648        C656   1.391       .  A
C648        C665   1.462       .  A
C649        C664   1.463       .  A
C649        C657   1.390       .  A
C650        C662   1.411       .  A
C650        C658   1.381       .  A
C651        C665   1.425       .  A
C651        C659   1.394       .  A
C652        C660   1.372       .  A
C652        C663   1.392       .  A
C653        C661   1.391       .  A
C653        C664   1.403       .  A
C654        C655   1.379       .  A
C654        H666   1.082       .  S
C655        H667   1.082       .  S
C656        C657   1.411       .  A
C656        H668   1.082       .  S
C657        H669   1.082       .  S
C658        C659   1.365       .  A
C658        H670   1.082       .  S
C659        H671   1.078       .  S
C660        C661   1.364       .  A
C660        H672   1.069       .  S
C661        H673   1.083       .  S
C662       C2987   1.469       .  S
C663       C2937   1.466       .  S
N676        C681   1.345       .  A
N676        C680   1.352       .  A
N676        H708   1.040       .  S
N677        C684   1.350       .  A
N677        C685   1.344       .  A
N678        C683   1.372       .  A
N678        C682   1.373       .  A
N678        H709   1.035       .  S
N679        C686   1.353       .  A
N679        C687   1.353       .  A
C680        C688   1.387       .  A
C680        C696   1.407       .  A
C681        C697   1.404       .  A
C681        C689   1.388       .  A
C682        C690   1.391   1_455  A
C682        C699   1.468       .  A
C683        C698   1.465       .  A
C683        C691   1.389   1_455  A
C684        C696   1.395       .  A
C684        C692   1.377       .  A
C685        C699   1.413       .  A
C685        C693   1.390       .  A
C686        C694   1.383       .  A
C686        C697   1.408       .  A
C687        C695   1.392       .  A
C687        C698   1.422       .  A
C688        C689   1.368       .  A
C688        H700   1.081       .  S
C689        H701   1.082       .  S
C690        C691   1.408       .  A
C690        H702   1.081       .  S
C691        H703   1.082       .  S
C692        C693   1.367       .  A
C692        H704   1.083       .  S
C693        H705   1.082       .  S
C694        C695   1.356       .  A
C694        H706   1.083       .  S
C695        H707   1.082       .  S
C696       C2947   1.481       .  S
C697       C3007   1.463       .  S
C699       C1250   1.543       .  S
O710        C726   1.284       .  A
O710       Zn716   2.085   1_565  S
C711        O727   1.284       .  A
C711        O724   1.291       .  A
C711       C2179   1.533       .  S
O712        C725   1.273       .  A
O712       Cd719   2.108       .  S
O713        C731   1.304       .  A
O713       Cd722   2.209       .  S
O714        C728   1.285       .  A
O714       Cd718   2.123       .  S
O715        C726   1.282       .  A
O715       Cd718   2.155   1_565  S
Zn716       O727   2.124       .  S
Zn716       O729   2.155   1_545  S
Zn716       O721   1.987       .  S
O717        C728   1.286       .  A
O717       Cd722   2.172       .  S
Cd718       O720   2.183   1_545  S
Cd718       O721   2.034       .  S
Cd719       O723   2.119       .  S
Cd719       O732   2.112   1_565  S
Cd719       O721   2.136   1_565  S
O720        C730   1.301       .  A
O721       Cd722   2.045       .  S
Cd722       O724   2.177       .  S
O723        C730   1.274       .  A
C725        O729   1.303       .  A
C726       C1201   1.518       .  S
C728       C1299   1.523       .  S
C731        O732   1.276       .  A
C731       C1930   1.537       .  S
O733        C749   1.283       .  A
O733       Zn739   2.087       .  S
C734        O750   1.276       .  A
C734        O747   1.284       .  A
C734       C1862   1.518       .  S
O735        C748   1.278       .  A
O735       Cd742   2.162       .  S
O736        C754   1.295       .  A
O736       Cd745   2.153   1_554  S
O737        C751   1.286       .  A
O737       Cd741   2.166       .  S
O738        C749   1.286       .  A
O738       Cd741   2.180       .  S
Zn739       O750   2.055   1_556  S
Zn739       O752   2.144   1_556  S
Zn739       O744   1.952       .  S
O740        C751   1.282       .  A
O740       Cd745   2.117       .  S
Cd741       O743   2.149       .  S
Cd741       O744   2.050       .  S
Cd742       O746   2.128   1_554  S
Cd742       O755   2.178       .  S
Cd742       O744   2.144   1_554  S
O743        C753   1.296       .  A
O744       Cd745   2.019       .  S
Cd745       O747   2.165   1_556  S
O746        C753   1.282       .  A
C748        O752   1.299       .  A
C748       C2180   1.556       .  S
C751        C837   1.518       .  S
C753       C1475   1.522       .  S
C754        O755   1.283       .  A
C754       C1098   1.556       .  S
C756       C2884   1.468       .  S
C756        N757   1.353       .  A
C756        N761   1.357       .  A
N757        C758   1.354       .  A
C758       C2897   1.468       .  S
C758        N759   1.350       .  A
N759        C760   1.354       .  A
C760       C2907   1.462       .  S
C760        N761   1.355       .  A
C762       C2854   1.477       .  S
C762        N763   1.358       .  A
C762        N767   1.356       .  A
N763        C764   1.360       .  A
C764       C2864   1.473       .  S
C764        N765   1.356       .  A
N765        C766   1.356       .  A
C766       C2877   1.463       .  S
C766        N767   1.349       .  A
C768       C2844   1.457       .  S
C768        N769   1.362       .  A
C768        N773   1.355       .  A
N769        C770   1.363       .  A
C770       C2824   1.470       .  S
C770        N771   1.353       .  A
N771        C772   1.349       .  A
C772       C2834   1.462       .  S
C772        N773   1.346       .  A
C774       C2804   1.463   1_554  S
C774        N775   1.357       .  A
C774        N779   1.356       .  A
N775        C776   1.352       .  A
C776       C2814   1.460       .  S
C776        N777   1.356       .  A
N777        C778   1.354       .  A
C778       C2797   1.478       .  S
C778        N779   1.358       .  A
N780        C785   1.353       .  A
N780        C784   1.346       .  A
N780        H812   1.040       .  S
N781        C788   1.355       .  A
N781        C789   1.357       .  A
N782        C787   1.376       .  A
N782        C786   1.371       .  A
N782        H813   1.038       .  S
N783        C790   1.346       .  A
N783        C791   1.340       .  A
C784        C792   1.386       .  A
C784        C800   1.403       .  A
C785        C801   1.414       .  A
C785        C793   1.389       .  A
C786        C794   1.390       .  A
C786        C803   1.464       .  A
C787        C802   1.465       .  A
C787        C795   1.390       .  A
C788        C800   1.414       .  A
C788        C796   1.386       .  A
C789        C803   1.422       .  A
C789        C797   1.391       .  A
C790        C798   1.384       .  A
C790        C801   1.399       .  A
C791        C799   1.390       .  A
C791        C802   1.404       .  A
C792        C793   1.377       .  A
C792        H804   1.083       .  S
C793        H805   1.081       .  S
C794        C795   1.410       .  A
C794        H806   1.082       .  S
C795        H807   1.082       .  S
C796        C797   1.361       .  A
C796        H808   1.082       .  S
C797        H809   1.082       .  S
C798        C799   1.373       .  A
C798        H810   1.083   1_556  S
C799        H811   1.082   1_556  S
C800       C2837   1.471       .  S
C801       C2794   1.482       .  S
N814        C819   1.352       .  A
N814        C818   1.345       .  A
N814        H846   1.065       .  S
N815        C822   1.353       .  A
N815        C823   1.356       .  A
N816        C821   1.361       .  A
N816        C820   1.357       .  A
N816        H847   1.061       .  S
N817        C824   1.345       .  A
N817        C825   1.340       .  A
C818        C826   1.389       .  A
C818        C834   1.413       .  A
C819        C835   1.414       .  A
C819        C827   1.386       .  A
C820        C828   1.392       .  A
C820        C837   1.451       .  A
C821        C836   1.449       .  A
C821        C829   1.389       .  A
C822        C834   1.413       .  A
C822        C830   1.382       .  A
C823        C837   1.429       .  A
C823        C831   1.393       .  A
C824        C832   1.385       .  A
C824        C835   1.394       .  A
C825        C833   1.387       .  A
C825        C836   1.397       .  A
C826        C827   1.374       .  A
C826        H838   1.082       .  S
C827        H839   1.082       .  S
C828        C829   1.409       .  A
C828        H840   1.082       .  S
C829        H841   1.082       .  S
C830        C831   1.369       .  A
C830        H842   1.083       .  S
C831        H843   1.082       .  S
C832        C833   1.374       .  A
C832        H844   1.082       .  S
C833        H845   1.083       .  S
C834       C2857   1.476       .  S
C835       C2827   1.478       .  S
C836       C1232   1.515       .  S
N848        C853   1.347       .  A
N848        C852   1.347       .  A
N848        H880   1.037       .  S
N849        C856   1.354       .  A
N849        C857   1.352       .  A
N850        C855   1.369       .  A
N850        C854   1.360       .  A
N850        H881   1.035       .  S
N851        C858   1.345       .  A
N851        C859   1.342       .  A
C852        C860   1.386       .  A
C852        C868   1.403       .  A
C853        C869   1.410       .  A
C853        C861   1.390       .  A
C854        C862   1.386       .  A
C854        C871   1.443       .  A
C855        C870   1.452       .  A
C855        C863   1.390       .  A
C856        C868   1.408       .  A
C856        C864   1.383       .  A
C857        C871   1.418       .  A
C857        C865   1.393       .  A
C858        C866   1.384       .  A
C858        C869   1.398       .  A
C859        C867   1.389       .  A
C859        C870   1.406       .  A
C860        C861   1.374       .  A
C860        H872   1.082       .  S
C861        H873   1.082       .  S
C862        C863   1.401       .  A
C862        H874   1.082       .  S
C863        H875   1.081       .  S
C864        C865   1.358       .  A
C864        H876   1.082       .  S
C865        H877   1.082       .  S
C866        C867   1.371       .  A
C866        H878   1.083       .  S
C867        H879   1.082       .  S
C868       C2847   1.471       .  S
C869       C2894   1.465       .  S
N882        C887   1.345       .  A
N882        C886   1.342       .  A
N882        H914   1.037       .  S
N883        C890   1.357       .  A
N883        C891   1.350       .  A
N884        C889   1.373       .  A
N884        C888   1.370       .  A
N884        H915   1.038       .  S
N885        C892   1.352       .  A
N885        C893   1.350       .  A
C886        C894   1.386       .  A
C886        C902   1.398       .  A
C887        C903   1.400       .  A
C887        C895   1.387       .  A
C888        C896   1.391       .  A
C888        C905   1.461       .  A
C889        C904   1.459       .  A
C889        C897   1.388       .  A
C890        C902   1.411       .  A
C890        C898   1.381       .  A
C891        C905   1.420       .  A
C891        C899   1.391       .  A
C892        C900   1.387       .  A
C892        C903   1.412       .  A
C893        C901   1.387       .  A
C893        C904   1.405       .  A
C894        C895   1.377       .  A
C894        H906   1.083       .  S
C895        H907   1.082       .  S
C896        C897   1.407       .  A
C896        H908   1.082       .  S
C897        H909   1.082       .  S
C898        C899   1.365       .  A
C898        H910   1.082       .  S
C899        H911   1.079       .  S
C900        C901   1.361       .  A
C900        H912   1.081       .  S
C901        H913   1.082       .  S
C902       C2867   1.476       .  S
C903       C2817   1.471       .  S
N916        C921   1.344       .  A
N916        C920   1.343       .  A
N916        H948   1.039       .  S
N917        C924   1.356       .  A
N917        C925   1.354       .  A
N918        C923   1.373       .  A
N918        C922   1.372       .  A
N918        H949   1.041       .  S
N919        C926   1.348       .  A
N919        C927   1.343       .  A
C920        C928   1.389       .  A
C920        C936   1.404       .  A
C921        C937   1.402       .  A
C921        C929   1.385       .  A
C922        C930   1.392   1_545  A
C922        C939   1.465       .  A
C923        C938   1.462       .  A
C923        C931   1.390   1_545  A
C924        C936   1.413       .  A
C924        C932   1.386       .  A
C925        C939   1.413       .  A
C925        C933   1.386       .  A
C926        C934   1.385       .  A
C926        C937   1.402       .  A
C927        C935   1.389       .  A
C927        C938   1.398       .  A
C928        C929   1.380       .  A
C928        H940   1.082       .  S
C929        H941   1.083       .  S
C930        C931   1.410       .  A
C930        H942   1.081       .  S
C931        H943   1.082       .  S
C932        C933   1.364       .  A
C932        H944   1.082       .  S
C933        H945   1.083       .  S
C934        C935   1.368       .  A
C934        H946   1.082       .  S
C935        H947   1.082       .  S
C936       C2874   1.477       .  S
C937       C2887   1.467       .  S
N950        C955   1.349       .  A
N950        C954   1.338       .  A
N950        H982   1.044       .  S
N951        C958   1.356       .  A
N951        C959   1.361       .  A
N952        C957   1.369       .  A
N952        C956   1.363       .  A
N952        H983   1.043       .  S
N953        C960   1.338       .  A
N953        C961   1.330       .  A
C954        C962   1.387       .  A
C954        C970   1.395       .  A
C955        C971   1.408       .  A
C955        C963   1.388       .  A
C956        C964   1.391       .  A
C956        C973   1.453       .  A
C957        C972   1.452       .  A
C957        C965   1.389       .  A
C958        C970   1.416       .  A
C958        C966   1.381       .  A
C959        C973   1.433       .  A
C959        C967   1.391       .  A
C960        C968   1.379       .  A
C960        C971   1.389       .  A
C961        C969   1.393       .  A
C961        C972   1.395       .  A
C962        C963   1.381       .  A
C962        H974   1.082       .  S
C963        H975   1.082       .  S
C964        C965   1.409       .  A
C964        H976   1.082   1_455  S
C965        H977   1.082   1_455  S
C966        C967   1.368       .  A
C966        H978   1.082       .  S
C967        H979   1.074       .  S
C968        C969   1.379       .  A
C968        H980   1.082       .  S
C969        H981   1.082       .  S
C970       C2904   1.472       .  S
C971       C2807   1.470       .  S
C973       C1962   1.548       .  S
C984       C2767   1.457       .  S
C984        N985   1.348       .  A
C984        N989   1.345       .  A
N985        C986   1.357       .  A
C986       C2784   1.467       .  S
C986        N987   1.361       .  A
N987        C988   1.362       .  A
C988       C2774   1.474       .  S
C988        N989   1.347       .  A
N990        C995   1.344       .  A
N990        C994   1.342       .  A
N990       H1022   1.042       .  S
N991        C998   1.347       .  A
N991        C999   1.344       .  A
N992        C997   1.368       .  A
N992        C996   1.372       .  A
N992       H1023   1.040       .  S
N993       C1000   1.353       .  A
N993       C1001   1.352       .  A
C994       C1002   1.388       .  A
C994       C1010   1.401       .  A
C995       C1011   1.400       .  A
C995       C1003   1.386       .  A
C996       C1004   1.388       .  A
C996       C1013   1.457       .  A
C997       C1012   1.459       .  A
C997       C1005   1.392       .  A
C998       C1010   1.400       .  A
C998       C1006   1.384       .  A
C999       C1013   1.405       .  A
C999       C1007   1.389       .  A
C1000      C1008   1.380       .  A
C1000      C1011   1.405       .  A
C1001      C1009   1.394       .  A
C1001      C1012   1.422       .  A
C1002      C1003   1.382       .  A
C1002      H1014   1.082       .  S
C1003      H1015   1.082       .  S
C1004      C1005   1.406       .  A
C1004      H1016   1.082       .  S
C1005      H1017   1.081       .  S
C1006      C1007   1.363       .  A
C1006      H1018   1.083       .  S
C1007      H1019   1.077       .  S
C1008      C1009   1.366       .  A
C1008      H1020   1.083       .  S
C1009      H1021   1.081       .  S
C1010      C2764   1.462       .  S
C1011      C2754   1.479       .  S
C1024      C2747   1.453       .  S
C1024      N1025   1.356       .  A
C1024      N1029   1.355       .  A
N1025      C1026   1.359   1_556  A
C1026      C2734   1.460       .  S
C1026      N1027   1.352       .  A
N1027      C1028   1.350       .  A
C1028      C2727   1.460       .  S
C1028      N1029   1.350   1_554  A
C1030      C2694   1.465       .  S
C1030      N1031   1.352       .  A
C1030      N1035   1.354       .  A
N1031      C1032   1.351       .  A
C1032      C2717   1.461   1_554  S
C1032      N1033   1.354       .  A
N1033      C1034   1.350       .  A
C1034      C2704   1.452       .  S
C1034      N1035   1.353       .  A
C1036      C2684   1.479       .  S
C1036      N1037   1.360       .  A
C1036      N1041   1.355       .  A
N1037      C1038   1.352       .  A
C1038      C2757   1.456       .  S
C1038      N1039   1.355       .  A
N1039      C1040   1.352       .  A
C1040      C2674   1.474       .  S
C1040      N1041   1.356       .  A
N1042      C1047   1.349       .  A
N1042      C1046   1.343       .  A
N1042      H1074   1.041       .  S
N1043      C1050   1.353       .  A
N1043      C1051   1.351       .  A
N1044      C1049   1.375       .  A
N1044      C1048   1.370       .  A
N1044      H1075   1.041       .  S
N1045      C1052   1.347       .  A
N1045      C1053   1.341       .  A
C1046      C1054   1.388       .  A
C1046      C1062   1.401       .  A
C1047      C1063   1.403       .  A
C1047      C1055   1.386       .  A
C1048      C1056   1.390       .  A
C1048      C1065   1.461       .  A
C1049      C1064   1.463       .  A
C1049      C1057   1.390       .  A
C1050      C1062   1.400       .  A
C1050      C1058   1.379       .  A
C1051      C1065   1.420       .  A
C1051      C1059   1.397       .  A
C1052      C1060   1.378       .  A
C1052      C1063   1.393       .  A
C1053      C1061   1.390       .  A
C1053      C1064   1.406       .  A
C1054      C1055   1.376       .  A
C1054      H1066   1.082       .  S
C1055      H1067   1.082       .  S
C1056      C1057   1.409       .  A
C1056      H1068   1.082       .  S
C1057      H1069   1.082       .  S
C1058      C1059   1.359       .  A
C1058      H1070   1.083       .  S
C1059      H1071   1.081       .  S
C1060      C1061   1.369       .  A
C1060      H1072   1.081       .  S
C1061      H1073   1.081       .  S
C1062      C2697   1.462       .  S
C1063      C2677   1.473       .  S
N1076      C1081   1.346       .  A
N1076      C1080   1.348       .  A
N1076      H1108   1.036       .  S
N1077      C1084   1.352       .  A
N1077      C1085   1.344       .  A
N1078      C1083   1.374       .  A
N1078      C1082   1.369       .  A
N1078      H1109   1.038       .  S
N1079      C1086   1.352       .  A
N1079      C1087   1.353       .  A
C1080      C1088   1.384       .  A
C1080      C1096   1.402       .  A
C1081      C1097   1.407       .  A
C1081      C1089   1.390       .  A
C1082      C1090   1.391       .  A
C1082      C1099   1.462       .  A
C1083      C1098   1.462       .  A
C1083      C1091   1.390       .  A
C1084      C1096   1.394       .  A
C1084      C1092   1.378       .  A
C1085      C1099   1.415       .  A
C1085      C1093   1.389       .  A
C1086      C1094   1.389       .  A
C1086      C1097   1.416       .  A
C1087      C1095   1.385       .  A
C1087      C1098   1.414       .  A
C1088      C1089   1.373       .  A
C1088      H1100   1.083       .  S
C1089      H1101   1.082       .  S
C1090      C1091   1.408       .  A
C1090      H1102   1.082       .  S
C1091      H1103   1.081       .  S
C1092      C1093   1.365       .  A
C1092      H1104   1.082       .  S
C1093      H1105   1.078       .  S
C1094      C1095   1.361       .  A
C1094      H1106   1.082       .  S
C1095      H1107   1.083       .  S
C1096      C2687   1.475       .  S
C1097      C2724   1.469       .  S
N1110      C1115   1.347       .  A
N1110      C1114   1.338       .  A
N1110      H1142   1.042       .  S
N1111      C1118   1.353       .  A
N1111      C1119   1.358       .  A
N1112      C1117   1.368       .  A
N1112      C1116   1.362       .  A
N1112      H1143   1.042       .  S
N1113      C1120   1.339       .  A
N1113      C1121   1.330       .  A
C1114      C1122   1.389       .  A
C1114      C1130   1.397       .  A
C1115      C1131   1.405       .  A
C1115      C1123   1.386       .  A
C1116      C1124   1.391       .  A
C1116      C1133   1.450       .  A
C1117      C1132   1.449       .  A
C1117      C1125   1.388       .  A
C1118      C1130   1.415       .  A
C1118      C1126   1.383       .  A
C1119      C1133   1.427       .  A
C1119      C1127   1.392       .  A
C1120      C1128   1.379       .  A
C1120      C1131   1.387       .  A
C1121      C1129   1.394       .  A
C1121      C1132   1.395       .  A
C1122      C1123   1.380       .  A
C1122      H1134   1.082       .  S
C1123      H1135   1.082       .  S
C1124      C1125   1.408       .  A
C1124      H1136   1.082       .  S
C1125      H1137   1.082       .  S
C1126      C1127   1.365       .  A
C1126      H1138   1.082       .  S
C1127      H1139   1.078       .  S
C1128      C1129   1.377       .  A
C1128      H1140   1.082       .  S
C1129      H1141   1.081       .  S
C1130      C2714   1.466       .  S
C1131      C2744   1.465       .  S
C1132      C1230   1.520       .  S
N1144      C1149   1.344       .  A
N1144      C1148   1.345       .  A
N1144      H1176   1.045       .  S
N1145      C1152   1.346       .  A
N1145      C1153   1.342       .  A
N1146      C1151   1.373       .  A
N1146      C1150   1.373       .  A
N1146      H1177   1.041       .  S
N1147      C1154   1.347       .  A
N1147      C1155   1.344       .  A
C1148      C1156   1.387       .  A
C1148      C1164   1.401       .  A
C1149      C1165   1.402       .  A
C1149      C1157   1.388       .  A
C1150      C1158   1.391       .  A
C1150      C1167   1.468       .  A
C1151      C1166   1.468       .  A
C1151      C1159   1.391       .  A
C1152      C1164   1.391       .  A
C1152      C1160   1.382       .  A
C1153      C1167   1.405       .  A
C1153      C1161   1.390       .  A
C1154      C1162   1.382       .  A
C1154      C1165   1.393       .  A
C1155      C1163   1.390       .  A
C1155      C1166   1.407       .  A
C1156      C1157   1.381       .  A
C1156      H1168   1.082       .  S
C1157      H1169   1.082       .  S
C1158      C1159   1.414       .  A
C1158      H1170   1.082       .  S
C1159      H1171   1.082       .  S
C1160      C1161   1.368       .  A
C1160      H1172   1.081       .  S
C1161      H1173   1.083       .  S
C1162      C1163   1.370       .  A
C1162      H1174   1.082       .  S
C1163      H1175   1.083       .  S
C1164      C2777   1.469       .  S
C1165      C2737   1.467       .  S
N1178      C1183   1.343       .  A
N1178      C1182   1.347       .  A
N1178      H1210   1.033       .  S
N1179      C1186   1.358       .  A
N1179      C1187   1.350       .  A
N1180      C1185   1.377       .  A
N1180      C1184   1.370       .  A
N1180      H1211   1.037       .  S
N1181      C1188   1.351       .  A
N1181      C1189   1.350       .  A
C1182      C1190   1.386       .  A
C1182      C1198   1.402       .  A
C1183      C1199   1.404       .  A
C1183      C1191   1.388       .  A
C1184      C1192   1.389   1_565  A
C1184      C1201   1.460       .  A
C1185      C1200   1.464       .  A
C1185      C1193   1.389       .  A
C1186      C1198   1.410       .  A
C1186      C1194   1.383       .  A
C1187      C1201   1.419       .  A
C1187      C1195   1.394       .  A
C1188      C1196   1.387       .  A
C1188      C1199   1.412       .  A
C1189      C1197   1.387       .  A
C1189      C1200   1.410       .  A
C1190      C1191   1.374       .  A
C1190      H1202   1.083       .  S
C1191      H1203   1.082       .  S
C1192      C1193   1.405   1_545  A
C1192      H1204   1.082       .  S
C1193      H1205   1.082   1_565  S
C1194      C1195   1.354       .  A
C1194      H1206   1.082       .  S
C1195      H1207   1.082       .  S
C1196      C1197   1.370       .  A
C1196      H1208   1.082       .  S
C1197      H1209   1.082       .  S
C1198      C2787   1.476       .  S
C1199      C2707   1.466       .  S
O1212      C1228   1.285       .  A
O1212     Zn1218   2.101       .  S
C1213      O1229   1.291       .  A
C1213      O1226   1.279       .  A
C1213      C1634   1.527       .  S
O1214      C1227   1.274       .  A
O1214     Cd1221   2.127       .  S
O1215      C1233   1.300       .  A
O1215     Cd1224   2.177       .  S
O1216      C1230   1.285       .  A
O1216     Cd1220   2.190       .  S
O1217      C1228   1.290       .  A
O1217     Cd1220   2.178       .  S
Zn1218     O1229   2.147       .  S
Zn1218     O1231   2.194       .  S
Zn1218     O1223   1.978       .  S
O1219      C1230   1.275       .  A
O1219     Cd1224   2.067       .  S
Cd1220     O1222   2.202       .  S
Cd1220     O1223   2.066       .  S
Cd1221     O1225   2.089       .  S
Cd1221     O1234   2.121       .  S
Cd1221     O1223   2.128       .  S
O1222      C1232   1.301       .  A
O1223     Cd1224   2.019       .  S
Cd1224     O1226   2.136       .  S
O1225      C1232   1.274       .  A
C1227      O1231   1.307       .  A
C1227      C1828   1.547       .  S
C1228      C1373   1.526       .  S
C1233      O1234   1.275       .  A
O1235      C1251   1.284       .  A
O1235     Zn1241   2.102   1_545  S
C1236      O1252   1.285       .  A
C1236      O1249   1.284       .  A
C1236      C1669   1.535       .  S
O1237      C1250   1.278   1_655  A
O1237     Cd1244   2.134       .  S
O1238      C1256   1.303       .  A
O1238     Cd1247   2.196       .  S
O1239      C1253   1.286       .  A
O1239     Cd1243   2.163       .  S
O1240      C1251   1.288       .  A
O1240     Cd1243   2.176   1_455  S
Zn1241     O1252   2.147       .  S
Zn1241     O1254   2.166       .  S
Zn1241     O1246   1.991   1_465  S
O1242      C1253   1.284       .  A
O1242     Cd1247   2.145   1_545  S
Cd1243     O1245   2.193       .  S
Cd1243     O1246   2.049       .  S
Cd1244     O1248   2.128   1_565  S
Cd1244     O1257   2.142       .  S
Cd1244     O1246   2.145   1_565  S
O1245      C1255   1.303       .  A
O1246     Cd1247   2.029   1_545  S
Cd1247     O1249   2.134   1_655  S
O1248      C1255   1.277       .  A
C1250      O1254   1.304       .  A
C1251      C2040   1.529       .  S
C1253      C1441   1.527       .  S
C1255      C1931   1.537       .  S
C1256      O1257   1.278       .  A
C1258      C2654   1.462       .  S
C1258      N1259   1.352   1_545  A
C1258      N1263   1.358       .  A
N1259      C1260   1.354       .  A
C1260      C2664   1.463       .  S
C1260      N1261   1.352   1_565  A
N1261      C1262   1.355       .  A
C1262      C2644   1.454       .  S
C1262      N1263   1.354       .  A
C1264      C2637   1.463       .  S
C1264      N1265   1.364       .  A
C1264      N1269   1.354       .  A
N1265      C1266   1.360       .  A
C1266      C2627   1.469   1_545  S
C1266      N1267   1.352       .  A
N1267      C1268   1.346       .  A
C1268      C2617   1.464       .  S
C1268      N1269   1.348       .  A
C1270      C2604   1.458       .  S
C1270      N1271   1.354       .  A
C1270      N1275   1.351       .  A
N1271      C1272   1.352       .  A
C1272      C2584   1.464       .  S
C1272      N1273   1.360       .  A
N1273      C1274   1.360       .  A
C1274      C2594   1.482       .  S
C1274      N1275   1.358       .  A
N1276      C1281   1.350       .  A
N1276      C1280   1.342       .  A
N1276      H1308   1.043       .  S
N1277      C1284   1.351       .  A
N1277      C1285   1.355       .  A
N1278      C1283   1.366       .  A
N1278      C1282   1.365       .  A
N1278      H1309   1.040       .  S
N1279      C1286   1.347       .  A
N1279      C1287   1.340       .  A
C1280      C1288   1.389       .  A
C1280      C1296   1.402       .  A
C1281      C1297   1.403       .  A
C1281      C1289   1.385       .  A
C1282      C1290   1.390       .  A
C1282      C1299   1.450       .  A
C1283      C1298   1.448       .  A
C1283      C1291   1.389       .  A
C1284      C1296   1.405       .  A
C1284      C1292   1.382       .  A
C1285      C1299   1.421       .  A
C1285      C1293   1.392       .  A
C1286      C1294   1.373       .  A
C1286      C1297   1.394       .  A
C1287      C1295   1.392       .  A
C1287      C1298   1.405       .  A
C1288      C1289   1.376       .  A
C1288      H1300   1.082       .  S
C1289      H1301   1.082       .  S
C1290      C1291   1.406       .  A
C1290      H1302   1.082       .  S
C1291      H1303   1.082       .  S
C1292      C1293   1.363       .  A
C1292      H1304   1.081       .  S
C1293      H1305   1.080       .  S
C1294      C1295   1.367       .  A
C1294      H1306   1.075       .  S
C1295      H1307   1.083       .  S
C1296      C2614   1.463       .  S
C1297      C2597   1.481       .  S
N1310      C1315   1.344       .  A
N1310      C1314   1.342       .  A
N1310      H1342   1.040       .  S
N1311      C1318   1.353       .  A
N1311      C1319   1.351       .  A
N1312      C1317   1.368       .  A
N1312      C1316   1.369       .  A
N1312      H1343   1.042       .  S
N1313      C1320   1.349       .  A
N1313      C1321   1.345       .  A
C1314      C1322   1.388       .  A
C1314      C1330   1.402       .  A
C1315      C1331   1.401       .  A
C1315      C1323   1.385       .  A
C1316      C1324   1.392       .  A
C1316      C1333   1.459       .  A
C1317      C1332   1.457       .  A
C1317      C1325   1.390       .  A
C1318      C1330   1.409       .  A
C1318      C1326   1.384       .  A
C1319      C1333   1.414       .  A
C1319      C1327   1.389       .  A
C1320      C1328   1.386       .  A
C1320      C1331   1.406       .  A
C1321      C1329   1.387       .  A
C1321      C1332   1.398       .  A
C1322      C1323   1.385       .  A
C1322      H1334   1.082       .  S
C1323      H1335   1.082       .  S
C1324      C1325   1.411       .  A
C1324      H1336   1.081       .  S
C1325      H1337   1.082       .  S
C1326      C1327   1.368       .  A
C1326      H1338   1.082       .  S
C1327      H1339   1.083       .  S
C1328      C1329   1.363       .  A
C1328      H1340   1.081       .  S
C1329      H1341   1.081       .  S
C1330      C2647   1.475       .  S
C1331      C2587   1.472       .  S
C1344      C2567   1.478       .  S
C1344      N1345   1.359       .  A
C1344      N1349   1.356       .  A
N1345      C1346   1.355       .  A
C1346      C2554   1.457       .  S
C1346      N1347   1.356       .  A
N1347      C1348   1.349       .  A
C1348      C2574   1.471       .  S
C1348      N1349   1.356       .  A
N1350      C1355   1.351       .  A
N1350      C1354   1.344       .  A
N1350      H1382   1.043       .  S
N1351      C1358   1.352       .  A
N1351      C1359   1.355       .  A
N1352      C1357   1.371       .  A
N1352      C1356   1.365       .  A
N1352      H1383   1.042       .  S
N1353      C1360   1.341       .  A
N1353      C1361   1.335       .  A
C1354      C1362   1.385       .  A
C1354      C1370   1.399       .  A
C1355      C1371   1.411       .  A
C1355      C1363   1.389       .  A
C1356      C1364   1.389       .  A
C1356      C1373   1.452       .  A
C1357      C1372   1.456       .  A
C1357      C1365   1.389       .  A
C1358      C1370   1.414       .  A
C1358      C1366   1.387       .  A
C1359      C1373   1.417       .  A
C1359      C1367   1.388       .  A
C1360      C1368   1.384       .  A
C1360      C1371   1.396       .  A
C1361      C1369   1.393       .  A
C1361      C1372   1.401       .  A
C1362      C1363   1.374       .  A
C1362      H1374   1.082       .  S
C1363      H1375   1.082       .  S
C1364      C1365   1.408       .  A
C1364      H1376   1.082       .  S
C1365      H1377   1.082       .  S
C1366      C1367   1.368       .  A
C1366      H1378   1.082       .  S
C1367      H1379   1.082       .  S
C1368      C1369   1.377       .  A
C1368      H1380   1.083       .  S
C1369      H1381   1.083       .  S
C1370      C2557   1.474       .  S
C1371      C2607   1.472       .  S
N1384      C1389   1.348       .  A
N1384      C1388   1.346       .  A
N1384      H1416   1.041       .  S
N1385      C1392   1.359       .  A
N1385      C1393   1.355       .  A
N1386      C1391   1.376       .  A
N1386      C1390   1.367       .  A
N1386      H1417   1.038       .  S
N1387      C1394   1.346       .  A
N1387      C1395   1.341       .  A
C1388      C1396   1.387       .  A
C1388      C1404   1.404       .  A
C1389      C1405   1.408       .  A
C1389      C1397   1.388       .  A
C1390      C1398   1.391       .  A
C1390      C1407   1.462       .  A
C1391      C1406   1.463       .  A
C1391      C1399   1.389       .  A
C1392      C1404   1.413       .  A
C1392      C1400   1.381       .  A
C1393      C1407   1.425       .  A
C1393      C1401   1.392       .  A
C1394      C1402   1.381       .  A
C1394      C1405   1.396       .  A
C1395      C1403   1.388       .  A
C1395      C1406   1.405       .  A
C1396      C1397   1.375       .  A
C1396      H1408   1.083       .  S
C1397      H1409   1.082       .  S
C1398      C1399   1.410       .  A
C1398      H1410   1.082       .  S
C1399      H1411   1.082       .  S
C1400      C1401   1.365       .  A
C1400      H1412   1.082       .  S
C1401      H1413   1.081       .  S
C1402      C1403   1.371       .  A
C1402      H1414   1.082       .  S
C1403      H1415   1.081       .  S
C1404      C2624   1.484       .  S
C1405      C2667   1.473       .  S
N1418      C1423   1.345       .  A
N1418      C1422   1.340       .  A
N1418      H1450   1.033       .  S
N1419      C1426   1.351       .  A
N1419      C1427   1.349       .  A
N1420      C1425   1.362       .  A
N1420      C1424   1.372       .  A
N1420      H1451   1.031       .  S
N1421      C1428   1.358       .  A
N1421      C1429   1.349       .  A
C1422      C1430   1.385       .  A
C1422      C1438   1.397       .  A
C1423      C1439   1.399       .  A
C1423      C1431   1.387       .  A
C1424      C1432   1.388   1_655  A
C1424      C1441   1.453       .  A
C1425      C1440   1.451       .  A
C1425      C1433   1.390   1_655  A
C1426      C1438   1.405       .  A
C1426      C1434   1.384       .  A
C1427      C1441   1.407       .  A
C1427      C1435   1.381       .  A
C1428      C1436   1.380       .  A
C1428      C1439   1.409       .  A
C1429      C1437   1.399       .  A
C1429      C1440   1.423       .  A
C1430      C1431   1.377       .  A
C1430      H1442   1.082       .  S
C1431      H1443   1.082       .  S
C1432      C1433   1.404       .  A
C1432      H1444   1.082       .  S
C1433      H1445   1.082       .  S
C1434      C1435   1.365       .  A
C1434      H1446   1.082       .  S
C1435      H1447   1.075       .  S
C1436      C1437   1.355       .  A
C1436      H1448   1.083       .  S
C1437      H1449   1.082       .  S
C1438      C2634   1.463       .  S
C1439      C2577   1.479       .  S
C1440      C1943   1.496       .  S
N1452      C1457   1.346       .  A
N1452      C1456   1.345       .  A
N1452      H1484   1.043       .  S
N1453      C1460   1.354       .  A
N1453      C1461   1.348       .  A
N1454      C1459   1.370       .  A
N1454      C1458   1.362       .  A
N1454      H1485   1.042       .  S
N1455      C1462   1.343       .  A
N1455      C1463   1.342       .  A
C1456      C1464   1.387       .  A
C1456      C1472   1.401       .  A
C1457      C1473   1.404       .  A
C1457      C1465   1.388       .  A
C1458      C1466   1.390       .  A
C1458      C1475   1.448       .  A
C1459      C1474   1.453       .  A
C1459      C1467   1.389       .  A
C1460      C1472   1.398       .  A
C1460      C1468   1.378       .  A
C1461      C1475   1.422       .  A
C1461      C1469   1.393       .  A
C1462      C1470   1.377       .  A
C1462      C1473   1.388       .  A
C1463      C1471   1.395       .  A
C1463      C1474   1.411       .  A
C1464      C1465   1.378       .  A
C1464      H1476   1.082       .  S
C1465      H1477   1.082       .  S
C1466      C1467   1.407       .  A
C1466      H1478   1.082       .  S
C1467      H1479   1.082       .  S
C1468      C1469   1.370       .  A
C1468      H1480   1.082       .  S
C1469      H1481   1.079       .  S
C1470      C1471   1.371       .  A
C1470      H1482   1.083   1_545  S
C1471      H1483   1.080   1_545  S
C1472      C2564   1.474       .  S
C1473      C2657   1.470       .  S
C1486      C2537   1.453       .  S
C1486      N1487   1.352       .  A
C1486      N1491   1.347       .  A
N1487      C1488   1.351       .  A
C1488      C2547   1.474   1_655  S
C1488      N1489   1.360   1_655  A
N1489      C1490   1.358       .  A
C1490      C2527   1.476       .  S
C1490      N1491   1.353   1_455  A
N1492      C1497   1.345       .  A
N1492      C1496   1.343       .  A
N1492      H1524   1.044       .  S
N1493      C1500   1.353       .  A
N1493      C1501   1.350       .  A
N1494      C1499   1.372       .  A
N1494      C1498   1.368       .  A
N1494      H1525   1.040       .  S
N1495      C1502   1.348       .  A
N1495      C1503   1.343       .  A
C1496      C1504   1.388       .  A
C1496      C1512   1.400       .  A
C1497      C1513   1.400       .  A
C1497      C1505   1.387       .  A
C1498      C1506   1.391       .  A
C1498      C1515   1.462       .  A
C1499      C1514   1.461       .  A
C1499      C1507   1.389       .  A
C1500      C1512   1.399       .  A
C1500      C1508   1.378       .  A
C1501      C1515   1.417       .  A
C1501      C1509   1.387       .  A
C1502      C1510   1.376       .  A
C1502      C1513   1.387       .  A
C1503      C1511   1.381       .  A
C1503      C1514   1.401       .  A
C1504      C1505   1.383       .  A
C1504      H1516   1.082       .  S
C1505      H1517   1.082       .  S
C1506      C1507   1.412       .  A
C1506      H1518   1.082       .  S
C1507      H1519   1.082       .  S
C1508      C1509   1.367       .  A
C1508      H1520   1.081       .  S
C1509      H1521   1.079       .  S
C1510      C1511   1.372       .  A
C1510      H1522   1.081       .  S
C1511      H1523   1.079       .  S
C1512      C2524   1.468       .  S
C1513      C2514   1.471       .  S
C1526      C2487   1.483       .  S
C1526      N1527   1.357       .  A
C1526      N1531   1.369       .  A
N1527      C1528   1.350       .  A
C1528      C2494   1.473       .  S
C1528      N1529   1.345       .  A
N1529      C1530   1.351       .  A
C1530      C2507   1.469       .  S
C1530      N1531   1.362       .  A
C1532      C2474   1.461       .  S
C1532      N1533   1.357       .  A
C1532      N1537   1.351       .  A
N1533      C1534   1.364       .  A
C1534      C2517   1.473       .  S
C1534      N1535   1.357       .  A
N1535      C1536   1.352       .  A
C1536      C2464   1.452       .  S
C1536      N1537   1.342       .  A
N1538      C1543   1.350       .  A
N1538      C1542   1.347       .  A
N1538      H1570   1.037       .  S
N1539      C1546   1.351       .  A
N1539      C1547   1.353       .  A
N1540      C1545   1.368       .  A
N1540      C1544   1.370       .  A
N1540      H1571   1.034       .  S
N1541      C1548   1.347       .  A
N1541      C1549   1.340       .  A
C1542      C1550   1.391       .  A
C1542      C1558   1.410       .  A
C1543      C1559   1.403       .  A
C1543      C1551   1.382       .  A
C1544      C1552   1.390       .  A
C1544      C1561   1.461       .  A
C1545      C1560   1.462       .  A
C1545      C1553   1.391       .  A
C1546      C1558   1.415       .  A
C1546      C1554   1.390       .  A
C1547      C1561   1.410       .  A
C1547      C1555   1.384       .  A
C1548      C1556   1.378       .  A
C1548      C1559   1.387       .  A
C1549      C1557   1.394       .  A
C1549      C1560   1.412       .  A
C1550      C1551   1.373       .  A
C1550      H1562   1.082       .  S
C1551      H1563   1.083       .  S
C1552      C1553   1.410       .  A
C1552      H1564   1.082       .  S
C1553      H1565   1.082       .  S
C1554      C1555   1.359       .  A
C1554      H1566   1.081       .  S
C1555      H1567   1.083       .  S
C1556      C1557   1.369       .  A
C1556      H1568   1.082       .  S
C1557      H1569   1.083       .  S
C1558      C2467   1.468       .  S
C1559      C2484   1.477       .  S
C1572      C2457   1.481       .  S
C1572      N1573   1.361   1_455  A
C1572      N1577   1.362       .  A
N1573      C1574   1.360       .  A
C1574      C2437   1.463       .  S
C1574      N1575   1.347   1_655  A
N1575      C1576   1.347       .  A
C1576      C2447   1.450       .  S
C1576      N1577   1.353       .  A
N1578      C1583   1.347       .  A
N1578      C1582   1.344       .  A
N1578      H1610   1.041       .  S
N1579      C1586   1.355       .  A
N1579      C1587   1.353       .  A
N1580      C1585   1.371       .  A
N1580      C1584   1.366       .  A
N1580      H1611   1.040       .  S
N1581      C1588   1.344       .  A
N1581      C1589   1.338       .  A
C1582      C1590   1.388       .  A
C1582      C1598   1.403       .  A
C1583      C1599   1.406       .  A
C1583      C1591   1.386       .  A
C1584      C1592   1.389       .  A
C1584      C1601   1.454       .  A
C1585      C1600   1.456       .  A
C1585      C1593   1.389       .  A
C1586      C1598   1.415       .  A
C1586      C1594   1.386       .  A
C1587      C1601   1.417       .  A
C1587      C1595   1.390       .  A
C1588      C1596   1.383       .  A
C1588      C1599   1.395       .  A
C1589      C1597   1.388       .  A
C1589      C1600   1.396       .  A
C1590      C1591   1.377       .  A
C1590      H1602   1.082       .  S
C1591      H1603   1.082       .  S
C1592      C1593   1.407       .  A
C1592      H1604   1.082       .  S
C1593      H1605   1.082       .  S
C1594      C1595   1.364       .  A
C1594      H1606   1.081       .  S
C1595      H1607   1.082       .  S
C1596      C1597   1.370       .  A
C1596      H1608   1.082       .  S
C1597      H1609   1.077       .  S
C1598      C2477   1.477       .  S
C1599      C2444   1.469       .  S
C1600      C1958   1.518       .  S
N1612      C1617   1.341       .  A
N1612      C1616   1.341       .  A
N1612      H1644   1.038       .  S
N1613      C1620   1.351       .  A
N1613      C1621   1.350       .  A
N1614      C1619   1.373       .  A
N1614      C1618   1.379       .  A
N1614      H1645   1.039       .  S
N1615      C1622   1.356       .  A
N1615      C1623   1.347       .  A
C1616      C1624   1.387       .  A
C1616      C1632   1.396       .  A
C1617      C1633   1.392       .  A
C1617      C1625   1.384       .  A
C1618      C1626   1.390       .  A
C1618      C1635   1.470       .  A
C1619      C1634   1.469       .  A
C1619      C1627   1.391       .  A
C1620      C1632   1.410       .  A
C1620      C1628   1.387       .  A
C1621      C1635   1.408       .  A
C1621      C1629   1.388       .  A
C1622      C1630   1.383       .  A
C1622      C1633   1.406       .  A
C1623      C1631   1.391       .  A
C1623      C1634   1.409       .  A
C1624      C1625   1.378       .  A
C1624      H1636   1.082       .  S
C1625      H1637   1.082       .  S
C1626      C1627   1.411       .  A
C1626      H1638   1.082       .  S
C1627      H1639   1.082       .  S
C1628      C1629   1.368       .  A
C1628      H1640   1.082       .  S
C1629      H1641   1.081       .  S
C1630      C1631   1.356       .  A
C1630      H1642   1.081       .  S
C1631      H1643   1.081       .  S
C1632      C2534   1.462       .  S
C1633      C2434   1.470       .  S
N1646      C1651   1.345       .  A
N1646      C1650   1.346       .  A
N1646      H1678   1.043       .  S
N1647      C1654   1.343       .  A
N1647      C1655   1.339       .  A
N1648      C1653   1.368       .  A
N1648      C1652   1.373       .  A
N1648      H1679   1.040       .  S
N1649      C1656   1.357       .  A
N1649      C1657   1.355       .  A
C1650      C1658   1.389       .  A
C1650      C1666   1.408       .  A
C1651      C1667   1.398       .  A
C1651      C1659   1.384       .  A
C1652      C1660   1.390       .  A
C1652      C1669   1.462       .  A
C1653      C1668   1.460       .  A
C1653      C1661   1.390       .  A
C1654      C1666   1.393       .  A
C1654      C1662   1.381       .  A
C1655      C1669   1.403       .  A
C1655      C1663   1.392       .  A
C1656      C1664   1.376       .  A
C1656      C1667   1.405       .  A
C1657      C1665   1.390       .  A
C1657      C1668   1.429       .  A
C1658      C1659   1.377       .  A
C1658      H1670   1.082       .  S
C1659      H1671   1.082       .  S
C1660      C1661   1.411       .  A
C1660      H1672   1.082   1_565  S
C1661      H1673   1.082   1_565  S
C1662      C1663   1.373       .  A
C1662      H1674   1.082   1_455  S
C1663      H1675   1.081       .  S
C1664      C1665   1.363       .  A
C1664      H1676   1.083       .  S
C1665      H1677   1.076       .  S
C1666      C2544   1.467       .  S
C1667      C2504   1.483       .  S
N1680      C1685   1.350       .  A
N1680      C1684   1.347       .  A
N1680      H1712   1.042       .  S
N1681      C1688   1.354       .  A
N1681      C1689   1.352       .  A
N1682      C1687   1.370       .  A
N1682      C1686   1.368       .  A
N1682      H1713   1.040       .  S
N1683      C1690   1.353       .  A
N1683      C1691   1.347       .  A
C1684      C1692   1.386       .  A
C1684      C1700   1.402       .  A
C1685      C1701   1.407       .  A
C1685      C1693   1.388       .  A
C1686      C1694   1.389       .  A
C1686      C1703   1.454       .  A
C1687      C1702   1.457       .  A
C1687      C1695   1.390       .  A
C1688      C1700   1.400       .  A
C1688      C1696   1.378       .  A
C1689      C1703   1.423       .  A
C1689      C1697   1.397       .  A
C1690      C1698   1.379       .  A
C1690      C1701   1.401       .  A
C1691      C1699   1.389       .  A
C1691      C1702   1.415       .  A
C1692      C1693   1.371       .  A
C1692      H1704   1.082       .  S
C1693      H1705   1.081       .  S
C1694      C1695   1.405       .  A
C1694      H1706   1.082   1_556  S
C1695      H1707   1.082       .  S
C1696      C1697   1.356       .  A
C1696      H1708   1.083       .  S
C1697      H1709   1.081       .  S
C1698      C1699   1.370       .  A
C1698      H1710   1.082   1_455  S
C1699      H1711   1.080   1_455  S
C1700      C2497   1.473       .  S
C1701      C2454   1.483       .  S
C1714      C2404   1.464       .  S
C1714      N1715   1.357       .  A
C1714      N1719   1.356       .  A
N1715      C1716   1.352       .  A
C1716      C2424   1.464       .  S
C1716      N1717   1.350       .  A
N1717      C1718   1.349       .  A
C1718      C2414   1.465       .  S
C1718      N1719   1.356       .  A
N1720      C1725   1.347       .  A
N1720      C1724   1.343       .  A
N1720      H1752   1.042       .  S
N1721      C1728   1.349       .  A
N1721      C1729   1.349       .  A
N1722      C1727   1.369       .  A
N1722      C1726   1.375       .  A
N1722      H1753   1.039       .  S
N1723      C1730   1.354       .  A
N1723      C1731   1.349       .  A
C1724      C1732   1.390       .  A
C1724      C1740   1.399       .  A
C1725      C1741   1.394       .  A
C1725      C1733   1.384       .  A
C1726      C1734   1.389       .  A
C1726      C1743   1.462       .  A
C1727      C1742   1.457       .  A
C1727      C1735   1.389       .  A
C1728      C1740   1.393       .  A
C1728      C1736   1.376       .  A
C1729      C1743   1.423       .  A
C1729      C1737   1.398       .  A
C1730      C1738   1.378       .  A
C1730      C1741   1.398       .  A
C1731      C1739   1.400       .  A
C1731      C1742   1.422       .  A
C1732      C1733   1.370       .  A
C1732      H1744   1.082       .  S
C1733      H1745   1.082       .  S
C1734      C1735   1.405       .  A
C1734      H1746   1.082       .  S
C1735      H1747   1.082       .  S
C1736      C1737   1.367       .  A
C1736      H1748   1.083       .  S
C1737      H1749   1.077       .  S
C1738      C1739   1.354       .  A
C1738      H1750   1.082       .  S
C1739      H1751   1.080       .  S
C1740      C2417   1.462       .  S
C1741      C2397   1.470       .  S
C1754      C2394   1.476       .  S
C1754      N1755   1.356       .  A
C1754      N1759   1.356       .  A
N1755      C1756   1.354       .  A
C1756      C2374   1.470       .  S
C1756      N1757   1.350       .  A
N1757      C1758   1.350       .  A
C1758      C2384   1.471       .  S
C1758      N1759   1.357       .  A
C1760      C2357   1.465       .  S
C1760      N1761   1.351       .  A
C1760      N1765   1.347       .  A
N1761      C1762   1.356       .  A
C1762      C2344   1.461       .  S
C1762      N1763   1.357       .  A
N1763      C1764   1.350       .  A
C1764      C2364   1.452   1_655  S
C1764      N1765   1.347       .  A
C1766      C2317   1.463   1_455  S
C1766      N1767   1.357       .  A
C1766      N1771   1.353   1_455  A
N1767      C1768   1.364       .  A
C1768      C2334   1.471       .  S
C1768      N1769   1.355       .  A
N1769      C1770   1.354   1_455  A
C1770      C2327   1.476       .  S
C1770      N1771   1.348       .  A
N1772      C1777   1.354       .  A
N1772      C1776   1.344       .  A
N1772      H1804   1.042       .  S
N1773      C1780   1.349       .  A
N1773      C1781   1.356       .  A
N1774      C1779   1.374       .  A
N1774      C1778   1.374       .  A
N1774      H1805   1.041       .  S
N1775      C1782   1.343       .  A
N1775      C1783   1.333       .  A
C1776      C1784   1.388       .  A
C1776      C1792   1.405       .  A
C1777      C1793   1.412       .  A
C1777      C1785   1.387       .  A
C1778      C1786   1.390       .  A
C1778      C1795   1.468       .  A
C1779      C1794   1.467       .  A
C1779      C1787   1.391       .  A
C1780      C1792   1.408       .  A
C1780      C1788   1.384       .  A
C1781      C1795   1.419       .  A
C1781      C1789   1.390       .  A
C1782      C1790   1.382       .  A
C1782      C1793   1.392       .  A
C1783      C1791   1.395       .  A
C1783      C1794   1.401       .  A
C1784      C1785   1.373       .  A
C1784      H1796   1.082       .  S
C1785      H1797   1.082       .  S
C1786      C1787   1.413       .  A
C1786      H1798   1.082       .  S
C1787      H1799   1.082       .  S
C1788      C1789   1.368       .  A
C1788      H1800   1.083       .  S
C1789      H1801   1.082       .  S
C1790      C1791   1.374       .  A
C1790      H1802   1.083       .  S
C1791      H1803   1.083       .  S
C1792      C2367   1.467       .  S
C1793      C2337   1.477       .  S
N1806      C1811   1.346       .  A
N1806      C1810   1.341       .  A
N1806      H1838   1.043       .  S
N1807      C1814   1.354       .  A
N1807      C1815   1.355       .  A
N1808      C1813   1.375       .  A
N1808      C1812   1.370       .  A
N1808      H1839   1.042       .  S
N1809      C1816   1.340       .  A
N1809      C1817   1.335       .  A
C1810      C1818   1.387       .  A
C1810      C1826   1.401       .  A
C1811      C1827   1.404       .  A
C1811      C1819   1.386       .  A
C1812      C1820   1.391       .  A
C1812      C1829   1.464       .  A
C1813      C1828   1.469       .  A
C1813      C1821   1.392       .  A
C1814      C1826   1.411       .  A
C1814      C1822   1.382       .  A
C1815      C1829   1.424       .  A
C1815      C1823   1.392       .  A
C1816      C1824   1.385       .  A
C1816      C1827   1.395       .  A
C1817      C1825   1.390       .  A
C1817      C1828   1.395       .  A
C1818      C1819   1.385       .  A
C1818      H1830   1.082       .  S
C1819      H1831   1.082       .  S
C1820      C1821   1.413       .  A
C1820      H1832   1.082       .  S
C1821      H1833   1.082       .  S
C1822      C1823   1.368       .  A
C1822      H1834   1.082       .  S
C1823      H1835   1.081       .  S
C1824      C1825   1.374       .  A
C1824      H1836   1.082       .  S
C1825      H1837   1.083       .  S
C1826      C2314   1.482       .  S
C1827      C2377   1.464       .  S
C1829      C1957   1.554       .  S
N1840      C1845   1.346       .  A
N1840      C1844   1.341       .  A
N1840      H1872   1.040       .  S
N1841      C1848   1.349       .  A
N1841      C1849   1.348       .  A
N1842      C1847   1.370       .  A
N1842      C1846   1.370       .  A
N1842      H1873   1.041       .  S
N1843      C1850   1.348       .  A
N1843      C1851   1.342       .  A
C1844      C1852   1.389       .  A
C1844      C1860   1.397       .  A
C1845      C1861   1.398       .  A
C1845      C1853   1.386       .  A
C1846      C1854   1.388   1_554  A
C1846      C1863   1.455       .  A
C1847      C1862   1.456       .  A
C1847      C1855   1.389   1_554  A
C1848      C1860   1.396       .  A
C1848      C1856   1.380       .  A
C1849      C1863   1.413       .  A
C1849      C1857   1.395       .  A
C1850      C1858   1.373       .  A
C1850      C1861   1.392       .  A
C1851      C1859   1.399       .  A
C1851      C1862   1.414       .  A
C1852      C1853   1.372       .  A
C1852      H1864   1.082       .  S
C1853      H1865   1.082       .  S
C1854      C1855   1.406       .  A
C1854      H1866   1.082       .  S
C1855      H1867   1.082       .  S
C1856      C1857   1.364       .  A
C1856      H1868   1.082       .  S
C1857      H1869   1.081       .  S
C1858      C1859   1.362       .  A
C1858      H1870   1.080       .  S
C1859      H1871   1.078       .  S
C1860      C2354   1.455       .  S
C1861      C2427   1.467       .  S
N1874      C1879   1.337       .  A
N1874      C1878   1.350       .  A
N1874      H1906   1.041       .  S
N1875      C1882   1.335       .  A
N1875      C1883   1.332       .  A
N1876      C1881   1.365       .  A
N1876      C1880   1.372       .  A
N1876      H1907   1.040       .  S
N1877      C1884   1.353       .  A
N1877      C1885   1.354       .  A
C1878      C1886   1.385       .  A
C1878      C1894   1.402       .  A
C1879      C1895   1.397       .  A
C1879      C1887   1.388       .  A
C1880      C1888   1.389       .  A
C1880      C1897   1.459       .  A
C1881      C1896   1.459       .  A
C1881      C1889   1.392       .  A
C1882      C1894   1.381       .  A
C1882      C1890   1.370       .  A
C1883      C1897   1.391       .  A
C1883      C1891   1.394       .  A
C1884      C1892   1.383       .  A
C1884      C1895   1.409       .  A
C1885      C1893   1.392       .  A
C1885      C1896   1.420       .  A
C1886      C1887   1.377       .  A
C1886      H1898   1.082       .  S
C1887      H1899   1.082       .  S
C1888      C1889   1.412       .  A
C1888      H1900   1.082       .  S
C1889      H1901   1.082       .  S
C1890      C1891   1.367       .  A
C1890      H1902   1.073       .  S
C1891      H1903   1.083       .  S
C1892      C1893   1.364       .  A
C1892      H1904   1.082       .  S
C1893      H1905   1.082       .  S
C1894      C2387   1.462       .  S
C1895      C2347   1.462       .  S
N1908      C1913   1.343       .  A
N1908      C1912   1.346       .  A
N1908      H1940   1.044       .  S
N1909      C1916   1.346       .  A
N1909      C1917   1.343       .  A
N1910      C1915   1.370       .  A
N1910      C1914   1.371       .  A
N1910      H1941   1.041       .  S
N1911      C1918   1.349       .  A
N1911      C1919   1.348       .  A
C1912      C1920   1.385       .  A
C1912      C1928   1.399       .  A
C1913      C1929   1.402       .  A
C1913      C1921   1.388       .  A
C1914      C1922   1.389       .  A
C1914      C1931   1.460       .  A
C1915      C1930   1.463       .  A
C1915      C1923   1.391       .  A
C1916      C1928   1.393       .  A
C1916      C1924   1.373       .  A
C1917      C1931   1.407       .  A
C1917      C1925   1.392       .  A
C1918      C1926   1.382       .  A
C1918      C1929   1.401       .  A
C1919      C1927   1.391       .  A
C1919      C1930   1.414       .  A
C1920      C1921   1.380       .  A
C1920      H1932   1.082       .  S
C1921      H1933   1.082       .  S
C1922      C1923   1.410       .  A
C1922      H1934   1.082       .  S
C1923      H1935   1.082       .  S
C1924      C1925   1.366       .  A
C1924      H1936   1.075       .  S
C1925      H1937   1.083       .  S
C1926      C1927   1.371       .  A
C1926      H1938   1.083       .  S
C1927      H1939   1.082       .  S
C1928      C2324   1.476       .  S
C1929      C2407   1.476       .  S
O1942      C1958   1.281       .  A
O1942     Zn1948   2.090       .  S
C1943      O1959   1.277       .  A
C1943      O1956   1.283       .  A
O1944      C1957   1.281       .  A
O1944     Cd1951   2.171       .  S
O1945      C1963   1.302       .  A
O1945     Cd1954   2.185       .  S
O1946      C1960   1.285       .  A
O1946     Cd1950   2.163       .  S
O1947      C1958   1.284       .  A
O1947     Cd1950   2.148       .  S
Zn1948     O1959   2.048   1_455  S
Zn1948     O1961   2.122   1_455  S
Zn1948     O1953   1.971       .  S
O1949      C1960   1.286       .  A
O1949     Cd1954   2.152   1_455  S
Cd1950     O1952   2.185       .  S
Cd1950     O1953   2.034       .  S
Cd1951     O1955   2.156   1_655  S
Cd1951     O1964   2.148       .  S
Cd1951     O1953   2.140   1_655  S
O1952      C1962   1.298       .  A
O1953     Cd1954   2.029   1_455  S
Cd1954     O1956   2.133       .  S
O1955      C1962   1.286       .  A
C1957      O1961   1.294       .  A
C1960      C2114   1.527       .  S
C1963      O1964   1.280       .  A
C1965      C2284   1.457       .  S
C1965      N1966   1.357       .  A
C1965      N1970   1.348   1_556  A
N1966      C1967   1.363       .  A
C1967      C2294   1.456       .  S
C1967      N1968   1.352   1_456  A
N1968      C1969   1.352       .  A
C1969      C2304   1.451       .  S
C1969      N1970   1.345   1_655  A
N1971      C1976   1.341       .  A
N1971      C1975   1.347       .  A
N1971      H2003   1.043       .  S
N1972      C1979   1.346       .  A
N1972      C1980   1.343       .  A
N1973      C1978   1.371       .  A
N1973      C1977   1.373       .  A
N1973      H2004   1.041       .  S
N1974      C1981   1.353       .  A
N1974      C1982   1.349       .  A
C1975      C1983   1.385       .  A
C1975      C1991   1.402       .  A
C1976      C1992   1.406       .  A
C1976      C1984   1.389       .  A
C1977      C1985   1.390       .  A
C1977      C1994   1.465       .  A
C1978      C1993   1.466       .  A
C1978      C1986   1.392       .  A
C1979      C1991   1.392       .  A
C1979      C1987   1.380       .  A
C1980      C1994   1.407       .  A
C1980      C1988   1.392       .  A
C1981      C1989   1.383       .  A
C1981      C1992   1.409       .  A
C1982      C1990   1.390       .  A
C1982      C1993   1.415       .  A
C1983      C1984   1.383       .  A
C1983      H1995   1.082       .  S
C1984      H1996   1.082       .  S
C1985      C1986   1.411       .  A
C1985      H1997   1.082       .  S
C1986      H1998   1.082       .  S
C1987      C1988   1.369       .  A
C1987      H1999   1.083       .  S
C1988      H2000   1.082       .  S
C1989      C1990   1.372       .  A
C1989      H2001   1.082   1_554  S
C1990      H2002   1.082   1_554  S
C1991      C2274   1.475       .  S
C1992      C2287   1.482       .  S
C2005      C2247   1.451       .  S
C2005      N2006   1.351   1_455  A
C2005      N2010   1.351       .  A
N2006      C2007   1.348       .  A
C2007      C2254   1.456       .  S
C2007      N2008   1.358       .  A
N2008      C2009   1.356       .  A
C2009      C2267   1.461   1_545  S
C2009      N2010   1.355   1_655  A
C2011      C2277   1.466       .  S
C2011      N2012   1.365       .  A
C2011      N2016   1.356       .  A
N2012      C2013   1.365       .  A
C2013      C2227   1.482       .  S
C2013      N2014   1.354       .  A
N2014      C2015   1.346       .  A
C2015      C2237   1.461       .  S
C2015      N2016   1.346       .  A
N2017      C2022   1.347       .  A
N2017      C2021   1.338       .  A
N2017      H2049   1.036       .  S
N2018      C2025   1.352       .  A
N2018      C2026   1.349       .  A
N2019      C2024   1.374       .  A
N2019      C2023   1.369       .  A
N2019      H2050   1.036       .  S
N2020      C2027   1.343       .  A
N2020      C2028   1.344       .  A
C2021      C2029   1.389       .  A
C2021      C2037   1.403       .  A
C2022      C2038   1.405       .  A
C2022      C2030   1.385       .  A
C2023      C2031   1.393       .  A
C2023      C2040   1.470       .  A
C2024      C2039   1.466       .  A
C2024      C2032   1.389       .  A
C2025      C2037   1.404       .  A
C2025      C2033   1.378       .  A
C2026      C2040   1.424       .  A
C2026      C2034   1.398       .  A
C2027      C2035   1.389       .  A
C2027      C2038   1.394       .  A
C2028      C2036   1.384       .  A
C2028      C2039   1.392       .  A
C2029      C2030   1.382       .  A
C2029      H2041   1.082       .  S
C2030      H2042   1.082       .  S
C2031      C2032   1.414       .  A
C2031      H2043   1.082       .  S
C2032      H2044   1.082       .  S
C2033      C2034   1.360       .  A
C2033      H2045   1.083       .  S
C2034      H2046   1.079       .  S
C2035      C2036   1.373       .  A
C2035      H2047   1.083       .  S
C2036      H2048   1.082       .  S
C2037      C2244   1.466       .  S
C2038      C2224   1.476       .  S
C2051      C2194   1.466       .  S
C2051      N2052   1.355       .  A
C2051      N2056   1.357   1_554  A
N2052      C2053   1.346       .  A
C2053      C2204   1.446   1_545  S
C2053      N2054   1.349       .  A
N2054      C2055   1.345   1_554  A
C2055      C2214   1.444       .  S
C2055      N2056   1.355       .  A
N2057      C2062   1.348       .  A
N2057      C2061   1.338       .  A
N2057      H2089   1.040       .  S
N2058      C2065   1.356       .  A
N2058      C2066   1.355       .  A
N2059      C2064   1.377       .  A
N2059      C2063   1.367       .  A
N2059      H2090   1.039       .  S
N2060      C2067   1.339       .  A
N2060      C2068   1.334       .  A
C2061      C2069   1.387       .  A
C2061      C2077   1.394       .  A
C2062      C2078   1.402       .  A
C2062      C2070   1.385       .  A
C2063      C2071   1.390       .  A
C2063      C2080   1.461       .  A
C2064      C2079   1.466       .  A
C2064      C2072   1.390       .  A
C2065      C2077   1.409       .  A
C2065      C2073   1.382       .  A
C2066      C2080   1.423       .  A
C2066      C2074   1.393       .  A
C2067      C2075   1.385       .  A
C2067      C2078   1.392       .  A
C2068      C2076   1.387       .  A
C2068      C2079   1.391       .  A
C2069      C2070   1.380       .  A
C2069      H2081   1.082       .  S
C2070      H2082   1.082       .  S
C2071      C2072   1.411       .  A
C2071      H2083   1.082       .  S
C2072      H2084   1.082       .  S
C2073      C2074   1.361       .  A
C2073      H2085   1.083       .  S
C2074      H2086   1.081       .  S
C2075      C2076   1.373       .  A
C2075      H2087   1.082       .  S
C2076      H2088   1.081       .  S
C2077      C2197   1.463       .  S
C2078      C2234   1.461       .  S
N2091      C2096   1.345       .  A
N2091      C2095   1.342       .  A
N2091      H2123   1.037       .  S
N2092      C2099   1.352       .  A
N2092      C2100   1.350       .  A
N2093      C2098   1.374       .  A
N2093      C2097   1.370       .  A
N2093      H2124   1.041       .  S
N2094      C2101   1.348       .  A
N2094      C2102   1.345       .  A
C2095      C2103   1.387       .  A
C2095      C2111   1.401       .  A
C2096      C2112   1.404       .  A
C2096      C2104   1.387       .  A
C2097      C2105   1.390       .  A
C2097      C2114   1.462       .  A
C2098      C2113   1.464       .  A
C2098      C2106   1.391       .  A
C2099      C2111   1.414       .  A
C2099      C2107   1.388       .  A
C2100      C2114   1.406       .  A
C2100      C2108   1.387       .  A
C2101      C2109   1.389       .  A
C2101      C2112   1.405       .  A
C2102      C2110   1.384       .  A
C2102      C2113   1.395       .  A
C2103      C2104   1.380       .  A
C2103      H2115   1.082       .  S
C2104      H2116   1.082       .  S
C2105      C2106   1.411       .  A
C2105      H2117   1.082       .  S
C2106      H2118   1.081       .  S
C2107      C2108   1.362       .  A
C2107      H2119   1.082       .  S
C2108      H2120   1.082       .  S
C2109      C2110   1.364       .  A
C2109      H2121   1.082       .  S
C2110      H2122   1.083       .  S
C2111      C2297   1.470       .  S
C2112      C2217   1.469       .  S
N2125      C2130   1.341       .  A
N2125      C2129   1.349       .  A
N2125      H2157   1.042       .  S
N2126      C2133   1.344       .  A
N2126      C2134   1.332       .  A
N2127      C2132   1.368       .  A
N2127      C2131   1.369       .  A
N2127      H2158   1.042       .  S
N2128      C2135   1.350       .  A
N2128      C2136   1.355       .  A
C2129      C2137   1.387       .  A
C2129      C2145   1.408       .  A
C2130      C2146   1.398       .  A
C2130      C2138   1.387       .  A
C2131      C2139   1.391       .  A
C2131      C2148   1.456       .  A
C2132      C2147   1.452       .  A
C2132      C2140   1.388       .  A
C2133      C2145   1.398       .  A
C2133      C2141   1.383       .  A
C2134      C2148   1.400       .  A
C2134      C2142   1.393       .  A
C2135      C2143   1.389       .  A
C2135      C2146   1.413       .  A
C2136      C2144   1.386       .  A
C2136      C2147   1.411       .  A
C2137      C2138   1.377       .  A
C2137      H2149   1.082       .  S
C2138      H2150   1.082       .  S
C2139      C2140   1.407       .  A
C2139      H2151   1.082       .  S
C2140      H2152   1.082       .  S
C2141      C2142   1.378       .  A
C2141      H2153   1.083   1_455  S
C2142      H2154   1.082   1_455  S
C2143      C2144   1.366       .  A
C2143      H2155   1.081       .  S
C2144      H2156   1.082       .  S
C2145      C2264   1.474       .  S
C2146      C2207   1.464       .  S
N2159      C2164   1.379       .  A
N2159      C2163   1.374       .  A
N2159      H2191   1.041       .  S
N2160      C2167   1.349       .  A
N2160      C2168   1.355       .  A
N2161      C2166   1.341       .  A
N2161      C2165   1.340       .  A
N2161      H2192   1.037       .  S
N2162      C2169   1.346       .  A
N2162      C2170   1.348       .  A
C2163      C2171   1.391       .  A
C2163      C2179   1.469       .  A
C2164      C2180   1.472       .  A
C2164      C2172   1.391       .  A
C2165      C2173   1.387       .  A
C2165      C2182   1.396       .  A
C2166      C2181   1.395       .  A
C2166      C2174   1.386       .  A
C2167      C2179   1.409       .  A
C2167      C2175   1.389       .  A
C2168      C2182   1.412       .  A
C2168      C2176   1.386       .  A
C2169      C2177   1.388       .  A
C2169      C2180   1.403       .  A
C2170      C2178   1.388       .  A
C2170      C2181   1.407       .  A
C2171      C2172   1.412       .  A
C2171      H2183   1.082       .  S
C2172      H2184   1.081       .  S
C2173      C2174   1.378       .  A
C2173      H2185   1.082       .  S
C2174      H2186   1.082       .  S
C2175      C2176   1.360       .  A
C2175      H2187   1.081       .  S
C2176      H2188   1.082       .  S
C2177      C2178   1.365       .  A
C2177      H2189   1.083       .  S
C2178      H2190   1.082       .  S
C2181      C2307   1.458       .  S
C2182      C2257   1.470       .  S
C2193      C2194   1.403       .  A
C2193      C2198   1.380       .  A
C2193      H2200   1.083       .  S
C2194      C2195   1.411       .  A
C2195      C2196   1.396       .  A
C2195      F2202   1.357   1_554  S
C2196      C2197   1.396       .  A
C2196      H2201   1.083       .  S
C2197      C2198   1.402       .  A
C2198      F2199   1.359       .  S
C2203      C2204   1.402       .  A
C2203      C2208   1.393       .  A
C2203      H2210   1.084       .  S
C2204      C2205   1.400       .  A
C2205      C2206   1.378       .  A
C2205      F2212   1.359   1_565  S
C2206      C2207   1.401       .  A
C2206      H2211   1.084       .  S
C2207      C2208   1.403       .  A
C2208      F2209   1.357       .  S
C2213      C2214   1.393       .  A
C2213      C2218   1.383       .  A
C2213      H2220   1.084       .  S
C2214      C2215   1.402   1_545  A
C2215      C2216   1.397       .  A
C2215      F2222   1.357       .  S
C2216      C2217   1.403   1_565  A
C2216      H2221   1.083       .  S
C2217      C2218   1.405       .  A
C2218      F2219   1.355       .  S
C2223      C2224   1.407       .  A
C2223      C2228   1.403       .  A
C2223      H2230   1.083       .  S
C2224      C2225   1.395       .  A
C2225      C2226   1.387       .  A
C2225      F2232   1.356       .  S
C2226      C2227   1.409       .  A
C2226      H2231   1.083       .  S
C2227      C2228   1.409       .  A
C2228      F2229   1.357       .  S
C2233      C2234   1.403       .  A
C2233      C2238   1.394       .  A
C2233      H2240   1.084       .  S
C2234      C2235   1.396       .  A
C2235      C2236   1.387       .  A
C2235      F2242   1.358       .  S
C2236      C2237   1.406       .  A
C2236      H2241   1.083       .  S
C2237      C2238   1.403       .  A
C2238      F2239   1.358       .  S
C2243      C2244   1.403       .  A
C2243      C2248   1.381       .  A
C2243      H2250   1.084       .  S
C2244      C2245   1.400       .  A
C2245      C2246   1.394       .  A
C2245      F2252   1.357       .  S
C2246      C2247   1.405       .  A
C2246      H2251   1.083       .  S
C2247      C2248   1.399       .  A
C2248      F2249   1.358       .  S
C2253      C2254   1.397       .  A
C2253      C2258   1.386       .  A
C2253      H2260   1.084       .  S
C2254      C2255   1.407       .  A
C2255      C2256   1.395       .  A
C2255      F2262   1.357       .  S
C2256      C2257   1.399       .  A
C2256      H2261   1.083       .  S
C2257      C2258   1.406       .  A
C2258      F2259   1.358       .  S
C2263      C2264   1.402       .  A
C2263      C2268   1.395   1_455  A
C2263      H2270   1.083       .  S
C2264      C2265   1.405       .  A
C2265      C2266   1.392   1_455  A
C2265      F2272   1.358       .  S
C2266      C2267   1.402       .  A
C2266      H2271   1.084       .  S
C2267      C2268   1.404       .  A
C2268      F2269   1.358   1_565  S
C2273      C2274   1.395       .  A
C2273      C2278   1.388       .  A
C2273      H2280   1.083       .  S
C2274      C2275   1.411       .  A
C2275      C2276   1.400       .  A
C2275      F2282   1.358       .  S
C2276      C2277   1.400       .  A
C2276      H2281   1.083       .  S
C2277      C2278   1.409       .  A
C2278      F2279   1.358       .  S
C2283      C2284   1.400   1_554  A
C2283      C2288   1.396       .  A
C2283      H2290   1.084       .  S
C2284      C2285   1.403   1_556  A
C2285      C2286   1.390       .  A
C2285      F2292   1.358   1_554  S
C2286      C2287   1.403       .  A
C2286      H2291   1.083       .  S
C2287      C2288   1.408       .  A
C2288      F2289   1.357       .  S
C2293      C2294   1.395       .  A
C2293      C2298   1.386       .  A
C2293      H2300   1.084       .  S
C2294      C2295   1.407       .  A
C2295      C2296   1.396       .  A
C2295      F2302   1.357   1_455  S
C2296      C2297   1.400       .  A
C2296      H2301   1.082   1_455  S
C2297      C2298   1.405       .  A
C2298      F2299   1.355       .  S
C2303      C2304   1.403       .  A
C2303      C2308   1.388       .  A
C2303      H2310   1.084       .  S
C2304      C2305   1.403       .  A
C2305      C2306   1.385       .  A
C2305      F2312   1.358       .  S
C2306      C2307   1.401       .  A
C2306      H2311   1.084       .  S
C2307      C2308   1.397       .  A
C2308      F2309   1.353       .  S
C2313      C2314   1.408       .  A
C2313      C2318   1.399   1_655  A
C2313      H2320   1.083   1_655  S
C2314      C2315   1.407       .  A
C2315      C2316   1.388       .  A
C2315      F2322   1.358       .  S
C2316      C2317   1.402       .  A
C2316      H2321   1.084       .  S
C2317      C2318   1.401   1_655  A
C2318      F2319   1.357       .  S
C2323      C2324   1.399       .  A
C2323      C2328   1.396       .  A
C2323      H2330   1.083       .  S
C2324      C2325   1.405       .  A
C2325      C2326   1.387       .  A
C2325      F2332   1.358       .  S
C2326      C2327   1.403       .  A
C2326      H2331   1.083       .  S
C2327      C2328   1.414       .  A
C2328      F2329   1.358       .  S
C2333      C2334   1.399       .  A
C2333      C2338   1.392       .  A
C2333      H2340   1.084       .  S
C2334      C2335   1.413       .  A
C2335      C2336   1.396       .  A
C2335      F2342   1.358       .  S
C2336      C2337   1.397       .  A
C2336      H2341   1.083       .  S
C2337      C2338   1.408       .  A
C2338      F2339   1.358       .  S
C2343      C2344   1.406       .  A
C2343      C2348   1.387       .  A
C2343      H2350   1.083       .  S
C2344      C2345   1.407       .  A
C2345      C2346   1.386       .  A
C2345      F2352   1.358       .  S
C2346      C2347   1.398       .  A
C2346      H2351   1.084       .  S
C2347      C2348   1.398       .  A
C2348      F2349   1.356       .  S
C2353      C2354   1.398       .  A
C2353      C2358   1.392       .  A
C2353      H2360   1.083       .  S
C2354      C2355   1.395       .  A
C2355      C2356   1.382       .  A
C2355      F2362   1.358       .  S
C2356      C2357   1.407       .  A
C2356      H2361   1.083       .  S
C2357      C2358   1.410       .  A
C2358      F2359   1.357       .  S
C2363      C2364   1.401       .  A
C2363      C2368   1.394       .  A
C2363      H2370   1.083       .  S
C2364      C2365   1.403       .  A
C2365      C2366   1.382       .  A
C2365      F2372   1.358   1_455  S
C2366      C2367   1.396       .  A
C2366      H2371   1.084       .  S
C2367      C2368   1.407       .  A
C2368      F2369   1.358       .  S
C2373      C2374   1.408       .  A
C2373      C2378   1.394       .  A
C2373      H2380   1.083       .  S
C2374      C2375   1.409       .  A
C2375      C2376   1.390       .  A
C2375      F2382   1.358       .  S
C2376      C2377   1.400       .  A
C2376      H2381   1.084       .  S
C2377      C2378   1.397       .  A
C2378      F2379   1.357       .  S
C2383      C2384   1.404       .  A
C2383      C2388   1.392       .  A
C2383      H2390   1.084       .  S
C2384      C2385   1.415       .  A
C2385      C2386   1.389       .  A
C2385      F2392   1.357       .  S
C2386      C2387   1.392       .  A
C2386      H2391   1.084       .  S
C2387      C2388   1.403       .  A
C2388      F2389   1.358       .  S
C2393      C2394   1.406       .  A
C2393      C2398   1.389       .  A
C2393      H2400   1.083       .  S
C2394      C2395   1.413       .  A
C2395      C2396   1.394       .  A
C2395      F2402   1.357       .  S
C2396      C2397   1.397       .  A
C2396      H2401   1.084       .  S
C2397      C2398   1.401       .  A
C2398      F2399   1.358       .  S
C2403      C2404   1.406       .  A
C2403      C2408   1.398       .  A
C2403      H2410   1.083       .  S
C2404      C2405   1.402       .  A
C2405      C2406   1.384       .  A
C2405      F2412   1.358       .  S
C2406      C2407   1.403       .  A
C2406      H2411   1.084       .  S
C2407      C2408   1.403       .  A
C2408      F2409   1.358       .  S
C2413      C2414   1.410       .  A
C2413      C2418   1.392       .  A
C2413      H2420   1.083       .  S
C2414      C2415   1.404       .  A
C2415      C2416   1.387       .  A
C2415      F2422   1.358       .  S
C2416      C2417   1.402       .  A
C2416      H2421   1.084       .  S
C2417      C2418   1.395       .  A
C2418      F2419   1.357       .  S
C2423      C2424   1.403       .  A
C2423      C2428   1.386       .  A
C2423      H2430   1.084       .  S
C2424      C2425   1.408       .  A
C2425      C2426   1.394       .  A
C2425      F2432   1.357       .  S
C2426      C2427   1.399       .  A
C2426      H2431   1.083       .  S
C2427      C2428   1.401       .  A
C2428      F2429   1.359       .  S
C2433      C2434   1.404       .  A
C2433      C2438   1.390       .  A
C2433      H2440   1.084       .  S
C2434      C2435   1.400       .  A
C2435      C2436   1.395       .  A
C2435      F2442   1.358       .  S
C2436      C2437   1.408       .  A
C2436      H2441   1.083       .  S
C2437      C2438   1.400       .  A
C2438      F2439   1.358       .  S
C2443      C2444   1.401       .  A
C2443      C2448   1.393       .  A
C2443      H2450   1.084       .  S
C2444      C2445   1.403       .  A
C2445      C2446   1.391       .  A
C2445      F2452   1.358       .  S
C2446      C2447   1.400       .  A
C2446      H2451   1.084       .  S
C2447      C2448   1.402       .  A
C2448      F2449   1.358       .  S
C2453      C2454   1.402       .  A
C2453      C2458   1.388       .  A
C2453      H2460   1.084       .  S
C2454      C2455   1.405       .  A
C2455      C2456   1.402       .  A
C2455      F2462   1.357   1_455  S
C2456      C2457   1.410       .  A
C2456      H2461   1.083   1_455  S
C2457      C2458   1.407       .  A
C2458      F2459   1.357       .  S
C2463      C2464   1.399       .  A
C2463      C2468   1.385       .  A
C2463      H2470   1.084       .  S
C2464      C2465   1.405       .  A
C2465      C2466   1.396       .  A
C2465      F2472   1.358       .  S
C2466      C2467   1.401       .  A
C2466      H2471   1.083       .  S
C2467      C2468   1.401       .  A
C2468      F2469   1.358       .  S
C2473      C2474   1.402       .  A
C2473      C2478   1.381       .  A
C2473      H2480   1.084       .  S
C2474      C2475   1.402       .  A
C2475      C2476   1.401       .  A
C2475      F2482   1.357       .  S
C2476      C2477   1.407       .  A
C2476      H2481   1.083       .  S
C2477      C2478   1.404       .  A
C2478      F2479   1.359       .  S
C2483      C2484   1.406       .  A
C2483      C2488   1.394       .  A
C2483      H2490   1.084       .  S
C2484      C2485   1.396       .  A
C2485      C2486   1.396       .  A
C2485      F2492   1.357       .  S
C2486      C2487   1.415       .  A
C2486      H2491   1.082       .  S
C2487      C2488   1.405       .  A
C2488      F2489   1.357       .  S
C2493      C2494   1.410       .  A
C2493      C2498   1.392       .  A
C2493      H2500   1.083       .  S
C2494      C2495   1.408       .  A
C2495      C2496   1.390       .  A
C2495      F2502   1.357       .  S
C2496      C2497   1.401       .  A
C2496      H2501   1.084       .  S
C2497      C2498   1.397       .  A
C2498      F2499   1.357       .  S
C2503      C2504   1.408       .  A
C2503      C2508   1.403       .  A
C2503      H2510   1.083       .  S
C2504      C2505   1.403       .  A
C2505      C2506   1.386       .  A
C2505      F2512   1.358       .  S
C2506      C2507   1.404       .  A
C2506      H2511   1.084       .  S
C2507      C2508   1.403       .  A
C2508      F2509   1.357       .  S
C2513      C2514   1.405       .  A
C2513      C2518   1.393       .  A
C2513      H2520   1.084       .  S
C2514      C2515   1.396       .  A
C2515      C2516   1.394       .  A
C2515      F2522   1.357       .  S
C2516      C2517   1.410       .  A
C2516      H2521   1.083       .  S
C2517      C2518   1.405       .  A
C2518      F2519   1.358       .  S
C2523      C2524   1.398       .  A
C2523      C2528   1.385       .  A
C2523      H2530   1.084       .  S
C2524      C2525   1.400       .  A
C2525      C2526   1.399       .  A
C2525      F2532   1.357       .  S
C2526      C2527   1.411       .  A
C2526      H2531   1.083       .  S
C2527      C2528   1.410       .  A
C2528      F2529   1.358       .  S
C2533      C2534   1.395       .  A
C2533      C2538   1.383       .  A
C2533      H2540   1.084       .  S
C2534      C2535   1.401       .  A
C2535      C2536   1.396       .  A
C2535      F2542   1.354       .  S
C2536      C2537   1.402       .  A
C2536      H2541   1.083       .  S
C2537      C2538   1.405       .  A
C2538      F2539   1.357       .  S
C2543      C2544   1.393       .  A
C2543      C2548   1.396   1_455  A
C2543      H2550   1.083       .  S
C2544      C2545   1.399       .  A
C2545      C2546   1.387       .  A
C2545      F2552   1.354       .  S
C2546      C2547   1.401       .  A
C2546      H2551   1.084       .  S
C2547      C2548   1.418   1_455  A
C2548      F2549   1.357       .  S
C2553      C2554   1.399       .  A
C2553      C2558   1.384       .  A
C2553      H2560   1.084       .  S
C2554      C2555   1.403       .  A
C2555      C2556   1.396       .  A
C2555      F2562   1.357       .  S
C2556      C2557   1.404       .  A
C2556      H2561   1.083       .  S
C2557      C2558   1.404       .  A
C2558      F2559   1.358       .  S
C2563      C2564   1.401       .  A
C2563      C2568   1.392       .  A
C2563      H2570   1.084       .  S
C2564      C2565   1.400       .  A
C2565      C2566   1.397       .  A
C2565      F2572   1.357       .  S
C2566      C2567   1.411       .  A
C2566      H2571   1.083       .  S
C2567      C2568   1.407       .  A
C2568      F2569   1.357       .  S
C2573      C2574   1.399       .  A
C2573      C2578   1.381       .  A
C2573      H2580   1.083       .  S
C2574      C2575   1.414       .  A
C2575      C2576   1.403       .  A
C2575      F2582   1.358       .  S
C2576      C2577   1.402       .  A
C2576      H2581   1.083       .  S
C2577      C2578   1.405       .  A
C2578      F2579   1.358       .  S
C2583      C2584   1.402       .  A
C2583      C2588   1.398       .  A
C2583      H2590   1.083       .  S
C2584      C2585   1.404       .  A
C2585      C2586   1.395       .  A
C2585      F2592   1.358       .  S
C2586      C2587   1.402       .  A
C2586      H2591   1.084       .  S
C2587      C2588   1.405       .  A
C2588      F2589   1.357       .  S
C2593      C2594   1.405       .  A
C2593      C2598   1.388       .  A
C2593      H2600   1.083       .  S
C2594      C2595   1.412       .  A
C2595      C2596   1.400       .  A
C2595      F2602   1.357       .  S
C2596      C2597   1.402       .  A
C2596      H2601   1.083       .  S
C2597      C2598   1.405       .  A
C2598      F2599   1.359       .  S
C2603      C2604   1.405       .  A
C2603      C2608   1.395       .  A
C2603      H2610   1.084       .  S
C2604      C2605   1.399       .  A
C2605      C2606   1.392       .  A
C2605      F2612   1.358       .  S
C2606      C2607   1.405       .  A
C2606      H2611   1.084       .  S
C2607      C2608   1.401       .  A
C2608      F2609   1.358       .  S
C2613      C2614   1.396       .  A
C2613      C2618   1.389       .  A
C2613      H2620   1.084       .  S
C2614      C2615   1.401       .  A
C2615      C2616   1.389       .  A
C2615      F2622   1.358       .  S
C2616      C2617   1.404       .  A
C2616      H2621   1.083       .  S
C2617      C2618   1.408       .  A
C2618      F2619   1.357       .  S
C2623      C2624   1.400       .  A
C2623      C2628   1.385       .  A
C2623      H2630   1.084       .  S
C2624      C2625   1.407       .  A
C2625      C2626   1.403       .  A
C2625      F2632   1.356       .  S
C2626      C2627   1.405       .  A
C2626      H2631   1.083       .  S
C2627      C2628   1.407       .  A
C2628      F2629   1.359   1_565  S
C2633      C2634   1.402       .  A
C2633      C2638   1.392       .  A
C2633      H2640   1.084       .  S
C2634      C2635   1.395       .  A
C2635      C2636   1.389       .  A
C2635      F2642   1.355       .  S
C2636      C2637   1.407       .  A
C2636      H2641   1.083       .  S
C2637      C2638   1.403       .  A
C2638      F2639   1.357       .  S
C2643      C2644   1.400       .  A
C2643      C2648   1.392       .  A
C2643      H2650   1.084       .  S
C2644      C2645   1.399       .  A
C2645      C2646   1.394       .  A
C2645      F2652   1.358       .  S
C2646      C2647   1.403       .  A
C2646      H2651   1.082       .  S
C2647      C2648   1.406       .  A
C2648      F2649   1.358       .  S
C2653      C2654   1.408   1_565  A
C2653      C2658   1.394       .  A
C2653      H2660   1.083       .  S
C2654      C2655   1.400       .  A
C2655      C2656   1.390       .  A
C2655      F2662   1.358       .  S
C2656      C2657   1.406       .  A
C2656      H2661   1.084       .  S
C2657      C2658   1.397   1_545  A
C2658      F2659   1.357       .  S
C2663      C2664   1.404       .  A
C2663      C2668   1.393       .  A
C2663      H2670   1.083       .  S
C2664      C2665   1.404       .  A
C2665      C2666   1.389       .  A
C2665      F2672   1.358       .  S
C2666      C2667   1.402       .  A
C2666      H2671   1.084       .  S
C2667      C2668   1.402       .  A
C2668      F2669   1.357       .  S
C2673      C2674   1.403       .  A
C2673      C2678   1.390       .  A
C2673      H2680   1.083       .  S
C2674      C2675   1.413       .  A
C2675      C2676   1.397       .  A
C2675      F2682   1.357       .  S
C2676      C2677   1.398       .  A
C2676      H2681   1.083       .  S
C2677      C2678   1.403       .  A
C2678      F2679   1.358       .  S
C2683      C2684   1.403       .  A
C2683      C2688   1.386       .  A
C2683      H2690   1.083       .  S
C2684      C2685   1.416       .  A
C2685      C2686   1.400       .  A
C2685      F2692   1.357       .  S
C2686      C2687   1.398       .  A
C2686      H2691   1.083       .  S
C2687      C2688   1.404       .  A
C2688      F2689   1.358       .  S
C2693      C2694   1.404       .  A
C2693      C2698   1.388       .  A
C2693      H2700   1.083       .  S
C2694      C2695   1.410       .  A
C2695      C2696   1.390       .  A
C2695      F2702   1.358       .  S
C2696      C2697   1.397       .  A
C2696      H2701   1.084       .  S
C2697      C2698   1.398       .  A
C2698      F2699   1.357       .  S
C2703      C2704   1.399       .  A
C2703      C2708   1.388       .  A
C2703      H2710   1.084       .  S
C2704      C2705   1.404       .  A
C2705      C2706   1.393       .  A
C2705      F2712   1.358   1_554  S
C2706      C2707   1.399       .  A
C2706      H2711   1.081       .  S
C2707      C2708   1.401       .  A
C2708      F2709   1.358       .  S
C2713      C2714   1.402       .  A
C2713      C2718   1.385       .  A
C2713      H2720   1.084       .  S
C2714      C2715   1.399       .  A
C2715      C2716   1.391       .  A
C2715      F2722   1.357       .  S
C2716      C2717   1.406       .  A
C2716      H2721   1.083       .  S
C2717      C2718   1.405       .  A
C2718      F2719   1.358       .  S
C2723      C2724   1.400       .  A
C2723      C2728   1.389       .  A
C2723      H2730   1.084       .  S
C2724      C2725   1.401       .  A
C2725      C2726   1.393   1_554  A
C2725      F2732   1.356   1_554  S
C2726      C2727   1.402   1_556  A
C2726      H2731   1.083       .  S
C2727      C2728   1.407       .  A
C2728      F2729   1.358       .  S
C2733      C2734   1.399       .  A
C2733      C2738   1.387       .  A
C2733      H2740   1.084       .  S
C2734      C2735   1.409       .  A
C2735      C2736   1.394       .  A
C2735      F2742   1.358       .  S
C2736      C2737   1.398       .  A
C2736      H2741   1.083       .  S
C2737      C2738   1.406       .  A
C2738      F2739   1.358       .  S
C2743      C2744   1.399       .  A
C2743      C2748   1.391       .  A
C2743      H2750   1.084       .  S
C2744      C2745   1.403       .  A
C2745      C2746   1.393       .  A
C2745      F2752   1.358       .  S
C2746      C2747   1.401       .  A
C2746      H2751   1.084       .  S
C2747      C2748   1.404       .  A
C2748      F2749   1.358       .  S
C2753      C2754   1.408       .  A
C2753      C2758   1.398       .  A
C2753      H2760   1.083       .  S
C2754      C2755   1.405       .  A
C2755      C2756   1.387       .  A
C2755      F2762   1.358       .  S
C2756      C2757   1.399       .  A
C2756      H2761   1.084       .  S
C2757      C2758   1.400       .  A
C2758      F2759   1.357       .  S
C2763      C2764   1.398       .  A
C2763      C2768   1.394       .  A
C2763      H2770   1.083       .  S
C2764      C2765   1.401       .  A
C2765      C2766   1.384       .  A
C2765      F2772   1.358       .  S
C2766      C2767   1.400       .  A
C2766      H2771   1.084       .  S
C2767      C2768   1.410       .  A
C2768      F2769   1.357       .  S
C2773      C2774   1.401       .  A
C2773      C2778   1.391       .  A
C2773      H2780   1.083       .  S
C2774      C2775   1.417       .  A
C2775      C2776   1.392       .  A
C2775      F2782   1.358       .  S
C2776      C2777   1.394       .  A
C2776      H2781   1.084       .  S
C2777      C2778   1.407       .  A
C2778      F2779   1.358       .  S
C2783      C2784   1.402       .  A
C2783      C2788   1.381       .  A
C2783      H2790   1.083       .  S
C2784      C2785   1.408       .  A
C2785      C2786   1.404       .  A
C2785      F2792   1.357       .  S
C2786      C2787   1.404       .  A
C2786      H2791   1.083       .  S
C2787      C2788   1.401       .  A
C2788      F2789   1.359       .  S
C2793      C2794   1.404       .  A
C2793      C2798   1.390   1_556  A
C2793      H2800   1.084       .  S
C2794      C2795   1.402   1_556  A
C2795      C2796   1.399       .  A
C2795      F2802   1.357       .  S
C2796      C2797   1.411       .  A
C2796      H2801   1.083       .  S
C2797      C2798   1.405       .  A
C2798      F2799   1.358   1_554  S
C2803      C2804   1.406       .  A
C2803      C2808   1.393       .  A
C2803      H2810   1.084       .  S
C2804      C2805   1.403       .  A
C2805      C2806   1.395       .  A
C2805      F2812   1.358   1_556  S
C2806      C2807   1.405       .  A
C2806      H2811   1.083       .  S
C2807      C2808   1.398       .  A
C2808      F2809   1.357       .  S
C2813      C2814   1.401       .  A
C2813      C2818   1.387       .  A
C2813      H2820   1.084       .  S
C2814      C2815   1.402       .  A
C2815      C2816   1.397       .  A
C2815      F2822   1.355       .  S
C2816      C2817   1.403       .  A
C2816      H2821   1.081       .  S
C2817      C2818   1.403       .  A
C2818      F2819   1.358       .  S
C2823      C2824   1.410       .  A
C2823      C2828   1.395       .  A
C2823      H2830   1.084       .  S
C2824      C2825   1.402       .  A
C2825      C2826   1.393       .  A
C2825      F2832   1.357       .  S
C2826      C2827   1.407       .  A
C2826      H2831   1.083       .  S
C2827      C2828   1.398       .  A
C2828      F2829   1.356       .  S
C2833      C2834   1.404       .  A
C2833      C2838   1.395       .  A
C2833      H2840   1.083       .  S
C2834      C2835   1.405       .  A
C2835      C2836   1.387       .  A
C2835      F2842   1.358       .  S
C2836      C2837   1.398       .  A
C2836      H2841   1.084       .  S
C2837      C2838   1.405       .  A
C2838      F2839   1.358       .  S
C2843      C2844   1.399       .  A
C2843      C2848   1.383       .  A
C2843      H2850   1.084       .  S
C2844      C2845   1.406       .  A
C2845      C2846   1.401       .  A
C2845      F2852   1.357       .  S
C2846      C2847   1.403       .  A
C2846      H2851   1.083       .  S
C2847      C2848   1.400       .  A
C2848      F2849   1.358       .  S
C2853      C2854   1.405       .  A
C2853      C2858   1.387       .  A
C2853      H2860   1.083       .  S
C2854      C2855   1.412       .  A
C2855      C2856   1.400       .  A
C2855      F2862   1.357       .  S
C2856      C2857   1.401       .  A
C2856      H2861   1.083       .  S
C2857      C2858   1.401       .  A
C2858      F2859   1.358       .  S
C2863      C2864   1.409   1_554  A
C2863      C2868   1.399       .  A
C2863      H2870   1.083       .  S
C2864      C2865   1.404   1_556  A
C2865      C2866   1.392       .  A
C2865      F2872   1.358   1_554  S
C2866      C2867   1.403       .  A
C2866      H2871   1.084       .  S
C2867      C2868   1.400       .  A
C2868      F2869   1.357       .  S
C2873      C2874   1.402       .  A
C2873      C2878   1.401       .  A
C2873      H2880   1.083       .  S
C2874      C2875   1.405       .  A
C2875      C2876   1.384       .  A
C2875      F2882   1.357       .  S
C2876      C2877   1.396       .  A
C2876      H2881   1.084       .  S
C2877      C2878   1.410       .  A
C2878      F2879   1.358       .  S
C2883      C2884   1.409       .  A
C2883      C2888   1.396       .  A
C2883      H2890   1.083       .  S
C2884      C2885   1.405       .  A
C2885      C2886   1.388       .  A
C2885      F2892   1.358       .  S
C2886      C2887   1.400       .  A
C2886      H2891   1.083       .  S
C2887      C2888   1.398       .  A
C2888      F2889   1.357       .  S
C2893      C2894   1.398       .  A
C2893      C2898   1.393       .  A
C2893      H2900   1.083       .  S
C2894      C2895   1.401       .  A
C2895      C2896   1.386       .  A
C2895      F2902   1.358       .  S
C2896      C2897   1.403       .  A
C2896      H2901   1.083       .  S
C2897      C2898   1.412       .  A
C2898      F2899   1.357       .  S
C2903      C2904   1.401       .  A
C2903      C2908   1.394       .  A
C2903      H2910   1.083       .  S
C2904      C2905   1.405       .  A
C2905      C2906   1.387       .  A
C2905      F2912   1.358       .  S
C2906      C2907   1.402       .  A
C2906      H2911   1.084       .  S
C2907      C2908   1.405       .  A
C2908      F2909   1.357       .  S
C2913      C2914   1.400       .  A
C2913      C2918   1.390       .  A
C2913      H2920   1.084       .  S
C2914      C2915   1.406       .  A
C2915      C2916   1.394       .  A
C2915      F2922   1.358       .  S
C2916      C2917   1.400       .  A
C2916      H2921   1.082       .  S
C2917      C2918   1.404       .  A
C2918      F2919   1.358       .  S
C2923      C2924   1.407       .  A
C2923      C2928   1.392       .  A
C2923      H2930   1.083       .  S
C2924      C2925   1.404       .  A
C2925      C2926   1.391       .  A
C2925      F2932   1.358       .  S
C2926      C2927   1.403       .  A
C2926      H2931   1.084       .  S
C2927      C2928   1.398       .  A
C2928      F2929   1.357       .  S
C2933      C2934   1.401       .  A
C2933      C2938   1.394       .  A
C2933      H2940   1.084       .  S
C2934      C2935   1.401       .  A
C2935      C2936   1.390       .  A
C2935      F2942   1.358       .  S
C2936      C2937   1.400       .  A
C2936      H2941   1.084       .  S
C2937      C2938   1.401       .  A
C2938      F2939   1.357       .  S
C2943      C2944   1.407       .  A
C2943      C2948   1.397       .  A
C2943      H2950   1.083       .  S
C2944      C2945   1.409       .  A
C2945      C2946   1.392       .  A
C2945      F2952   1.358       .  S
C2946      C2947   1.402       .  A
C2946      H2951   1.084       .  S
C2947      C2948   1.403       .  A
C2948      F2949   1.357       .  S
C2953      C2954   1.398       .  A
C2953      C2958   1.386       .  A
C2953      H2960   1.084       .  S
C2954      C2955   1.404       .  A
C2955      C2956   1.392       .  A
C2955      F2962   1.358       .  S
C2956      C2957   1.404       .  A
C2956      H2961   1.083       .  S
C2957      C2958   1.408       .  A
C2958      F2959   1.358       .  S
C2963      C2964   1.405       .  A
C2963      C2968   1.399       .  A
C2963      H2970   1.083       .  S
C2964      C2965   1.404       .  A
C2965      C2966   1.392       .  A
C2965      F2972   1.358   1_565  S
C2966      C2967   1.403       .  A
C2966      H2971   1.084       .  S
C2967      C2968   1.400       .  A
C2968      F2969   1.357       .  S
C2973      C2974   1.394   1_545  A
C2973      C2978   1.394       .  A
C2973      H2980   1.083       .  S
C2974      C2975   1.409       .  A
C2975      C2976   1.393       .  A
C2975      F2982   1.358       .  S
C2976      C2977   1.400   1_565  A
C2976      H2981   1.083       .  S
C2977      C2978   1.413       .  A
C2978      F2979   1.358       .  S
C2983      C2984   1.401       .  A
C2983      C2988   1.396       .  A
C2983      H2990   1.083       .  S
C2984      C2985   1.408       .  A
C2985      C2986   1.388       .  A
C2985      F2992   1.358       .  S
C2986      C2987   1.398       .  A
C2986      H2991   1.084       .  S
C2987      C2988   1.402       .  A
C2988      F2989   1.354       .  S
C2993      C2994   1.399       .  A
C2993      C2998   1.399       .  A
C2993      H3000   1.083       .  S
C2994      C2995   1.402       .  A
C2995      C2996   1.387       .  A
C2995      F3002   1.358       .  S
C2996      C2997   1.399       .  A
C2996      H3001   1.084       .  S
C2997      C2998   1.408       .  A
C2998      F2999   1.354       .  S
C3003      C3004   1.407       .  A
C3003      C3008   1.395       .  A
C3003      H3010   1.083       .  S
C3004      C3005   1.414       .  A
C3005      C3006   1.381       .  A
C3005      F3012   1.357       .  S
C3006      C3007   1.392       .  A
C3006      H3011   1.084       .  S
C3007      C3008   1.400       .  A
C3008      F3009   1.357       .  S
C3013      C3014   1.399       .  A
C3013      C3018   1.395       .  A
C3013      H3020   1.081       .  S
C3014      C3015   1.402       .  A
C3015      C3016   1.385       .  A
C3015      F3022   1.359       .  S
C3016      C3017   1.400       .  A
C3016      H3021   1.084       .  S
C3017      C3018   1.405       .  A
C3018      F3019   1.357       .  S
C3023      C3024   1.409       .  A
C3023      C3028   1.393       .  A
C3023      H3030   1.084       .  S
C3024      C3025   1.394       .  A
C3025      C3026   1.385       .  A
C3025      F3032   1.357       .  S
C3026      C3027   1.407       .  A
C3026      H3031   1.083       .  S
C3027      C3028   1.399       .  A
C3028      F3029   1.358       .  S
C3033      C3034   1.402       .  A
C3033      C3038   1.388       .  A
C3033      H3040   1.083       .  S
C3034      C3035   1.416   1_565  A
C3035      C3036   1.393       .  A
C3035      F3042   1.358       .  S
C3036      C3037   1.394   1_545  A
C3036      H3041   1.083       .  S
C3037      C3038   1.405       .  A
C3038      F3039   1.358       .  S
C3043      C3044   1.401       .  A
C3043      C3048   1.395       .  A
C3043      H3050   1.084       .  S
C3044      C3045   1.404       .  A
C3045      C3046   1.393       .  A
C3045      F3052   1.358       .  S
C3046      C3047   1.400       .  A
C3046      H3051   1.083       .  S
C3047      C3048   1.406       .  A
C3048      F3049   1.358       .  S
C3053      C3054   1.407       .  A
C3053      C3058   1.398       .  A
C3053      H3060   1.083   1_655  S
C3054      C3055   1.403       .  A
C3055      C3056   1.386       .  A
C3055      F3062   1.359       .  S
C3056      C3057   1.401       .  A
C3056      H3061   1.084       .  S
C3057      C3058   1.400       .  A
C3058      F3059   1.357       .  S
C3063      C3064   1.405       .  A
C3063      C3068   1.388       .  A
C3063      H3070   1.083       .  S
C3064      C3065   1.412       .  A
C3065      C3066   1.388       .  A
C3065      F3072   1.356       .  S
C3066      C3067   1.395       .  A
C3066      H3071   1.084       .  S
C3067      C3068   1.400       .  A
C3068      F3069   1.358       .  S
C3073      C3074   1.401       .  A
C3073      C3078   1.385       .  A
C3073      H3080   1.083       .  S
C3074      C3075   1.415       .  A
C3075      C3076   1.389       .  A
C3075      F3082   1.356       .  S
C3076      C3077   1.391       .  A
C3076      H3081   1.083       .  S
C3077      C3078   1.402       .  A
C3078      F3079   1.359       .  S
C3083      C3084   1.406   1_455  A
C3083      C3088   1.398       .  A
C3083      H3090   1.083       .  S
C3084      C3085   1.404   1_655  A
C3085      C3086   1.385       .  A
C3085      F3092   1.358   1_455  S
C3086      C3087   1.402       .  A
C3086      H3091   1.084       .  S
C3087      C3088   1.402       .  A
C3088      F3089   1.357       .  S
C3093      C3094   1.400       .  A
C3093      C3098   1.387       .  A
C3093      H3100   1.084       .  S
C3094      C3095   1.402       .  A
C3095      C3096   1.399       .  A
C3095      F3102   1.357       .  S
C3096      C3097   1.409       .  A
C3096      H3101   1.083       .  S
C3097      C3098   1.403       .  A
C3098      F3099   1.358       .  S
C3103      C3104   1.410       .  A
C3103      C3108   1.398       .  A
C3103      H3110   1.083   1_556  S
C3104      C3105   1.411       .  A
C3105      C3106   1.388       .  A
C3105      F3112   1.358       .  S
C3106      C3107   1.401       .  A
C3106      H3111   1.084       .  S
C3107      C3108   1.401       .  A
C3108      F3109   1.357   1_556  S
C3113      C3114   1.408       .  A
C3113      C3118   1.391   1_545  A
C3113      H3120   1.083       .  S
C3114      C3115   1.405   1_545  A
C3115      C3116   1.397       .  A
C3115      F3122   1.358       .  S
C3116      C3117   1.404       .  A
C3116      H3121   1.084       .  S
C3117      C3118   1.398       .  A
C3118      F3119   1.357       .  S
C3123      C3124   1.408       .  A
C3123      C3128   1.391       .  A
C3123      H3130   1.083       .  S
C3124      C3125   1.400       .  A
C3125      C3126   1.393       .  A
C3125      F3132   1.357       .  S
C3126      C3127   1.406       .  A
C3126      H3131   1.084       .  S
C3127      C3128   1.399       .  A
C3128      F3129   1.358       .  S
C3133      C3134   1.398       .  A
C3133      C3138   1.383       .  A
C3133      H3140   1.084       .  S
C3134      C3135   1.404       .  A
C3135      C3136   1.403       .  A
C3135      F3142   1.357       .  S
C3136      C3137   1.407       .  A
C3136      H3141   1.083       .  S
C3137      C3138   1.407       .  A
C3138      F3139   1.359       .  S
C3143      C3144   1.410       .  A
C3143      C3148   1.391       .  A
C3143      H3150   1.083       .  S
C3144      C3145   1.408       .  A
C3145      C3146   1.384       .  A
C3145      F3152   1.358       .  S
C3146      C3147   1.398       .  A
C3146      H3151   1.084       .  S
C3147      C3148   1.394       .  A
C3148      F3149   1.357       .  S
