geometry optimzed in LAMMPS
_audit_creation_date              2020-11-30 
_audit_creation_method            'lammps2cif' 
_symmetry_space_group_name_H-M    'P1' 
_symmetry_Int_Tables_number       1 
_symmetry_cell_setting            triclinic 
loop_ 
_symmetry_equiv_pos_as_xyz 
  x,y,z 
_cell_length_a                    47.087599512687504 
_cell_length_b                    47.27579966269789 
_cell_length_c                    37.500064895242666 
_cell_angle_alpha                 90.78586599932669 
_cell_angle_beta                  90.9052411400891 
_cell_angle_gamma                 119.84548747128314 
loop_ 
_atom_site_label 
_atom_site_type_symbol 
_atom_site_fract_x 
_atom_site_fract_y 
_atom_site_fract_z 
_atom_site_charge 
C1          C  0.46164781  0.06366678  0.18575994    -0.01630
C2          C  0.40505037  0.94682756  0.27479574    -0.01630
C3          C  0.40576234  0.94871859  0.43398341    -0.01630
C4          C  0.46938016  0.06836078  0.02932328    -0.01630
O5          O  0.48413172  0.25785944  0.39512738    -0.56960
C6          C  0.53066919  0.27531679  0.47470188     0.75670
O7          O  0.46330556  0.27151555  0.50295784    -0.58120
C8          C  0.45772972  0.24023649  0.37759974     0.75640
C9          C  0.45432462  0.17507204  0.47141632     0.78030
Cd10       Cd  0.46462502  0.23814509  0.45276514     1.37470
O11         O  0.52325061  0.26523213  0.44259836    -0.56960
O12         O  0.47680094  0.19494347  0.45206923    -0.55770
C13         C  0.45014514  0.28475266  0.48537826     0.77990
O14         O  0.43345740  0.18308162  0.48119675    -0.58140
O15         O  0.50754783  0.26813343  0.49577945    -0.56590
O16         O  0.43242986  0.22196183  0.39516708    -0.56580
O17         O  0.43814288  0.27202236  0.45489194    -0.55750
O18         O  0.52514052  0.26605221  0.26940126    -0.56960
C19         C  0.45820012  0.24072055  0.33865163     0.75670
O20         O  0.43498719  0.26535173  0.22982921    -0.58120
C21         C  0.53112222  0.27513170  0.23744915     0.75640
C22         C  0.45798312  0.17994950  0.23969100     0.78030
Cd23       Cd  0.46682122  0.24274917  0.26327281     1.37470
O24         O  0.48521801  0.25738271  0.32372807    -0.56960
O25         O  0.48119338  0.20067099  0.25937168    -0.55770
C26         C  0.45567599  0.29446083  0.24003950     0.77990
O27         O  0.43595823  0.18702576  0.23111552    -0.58140
O28         O  0.43310997  0.22438515  0.31847452    -0.56590
O29         O  0.50701625  0.26922655  0.21698857    -0.56580
O30         O  0.47794706  0.29763042  0.26162540    -0.55750
O31         O  0.26631716  0.74943966  0.01958780    -0.56960
C32         C  0.23563905  0.78100968  0.08783273     0.75670
O33         O  0.25651212  0.83167284  0.48652157    -0.58120
C34         C  0.26108268  0.73759653  0.48813423     0.75640
C35         C  0.16791551  0.72257336  0.99657430     0.78030
Cd36       Cd  0.23355026  0.77441473  0.01293593     1.37470
O37         O  0.25092100  0.77006298  0.07047055    -0.56960
O38         O  0.18528902  0.72188697  0.02212194    -0.55770
C39         C  0.28518197  0.83530615  0.98574569     0.77990
O40         O  0.17986442  0.74910761  0.47956292    -0.58140
O41         O  0.21978921  0.79167659  0.07027635    -0.56590
O42         O  0.24171083  0.74183889  0.46797271    -0.56580
O43         O  0.28765143  0.81136947  0.99584281    -0.55750
C44         C  0.32949999  0.67231202  0.43491718    -0.01630
O45         O  0.51161048  0.77696223  0.07006839    -0.56960
C46         C  0.46468193  0.74318651  0.48834143     0.75670
O47         O  0.56412475  0.83664568  0.50379978    -0.58120
C48         C  0.53808162  0.78496812  0.08700701     0.75640
C49         C  0.53977955  0.72114374  0.98939941     0.78030
Cd50       Cd  0.53069540  0.77506425  0.01125831     1.37470
O51         O  0.47218894  0.74330166  0.02103490    -0.56960
O52         O  0.51724539  0.71896385  0.00874974    -0.55770
C53         C  0.54374383  0.83624359  0.98089242     0.77990
O54         O  0.56140794  0.74993170  0.48123434    -0.58140
O55         O  0.48770169  0.75873312  0.46711366    -0.56590
O56         O  0.56270330  0.79051320  0.06873934    -0.56580
O57         O  0.52231855  0.80852925  0.96915295    -0.55750
O58         O  0.47497877  0.74751341  0.19071351    -0.56960
C59         C  0.53873020  0.78545644  0.12604133     0.75670
O60         O  0.51880073  0.80968387  0.23867887    -0.58120
C61         C  0.46925594  0.74074620  0.22339036     0.75640
C62         C  0.54613830  0.72542231  0.22128176     0.78030
Cd63       Cd  0.53366361  0.77709690  0.20143506     1.37460
O64         O  0.51260377  0.77702047  0.14252460    -0.56960
O65         O  0.52726177  0.72344907  0.19598998    -0.55770
C66         C  0.54409106  0.83704338  0.23579900     0.77990
O67         O  0.56349996  0.75361326  0.23581889    -0.58140
O68         O  0.56419360  0.79235667  0.14470762    -0.56590
O69         O  0.49356524  0.75058799  0.24479972    -0.56580
O70         O  0.56739112  0.83719446  0.21886350    -0.55750
C71         C  0.33711357  0.67210093  0.27679826    -0.01630
O72         O  0.26065243  0.73424771  0.18391381    -0.56960
C73         C  0.23574564  0.77903085  0.12640536     0.75670
O74         O  0.18374738  0.74416310  0.23410907    -0.58120
C75         C  0.27415092  0.73854233  0.21451077     0.75640
C76         C  0.28186613  0.82803607  0.23118727     0.78030
Cd77       Cd  0.23484847  0.76652547  0.19952720     1.37470
O78         O  0.25264734  0.76816567  0.14101711    -0.56960
O79         O  0.26529878  0.82695693  0.20365781    -0.55770
C80         C  0.17179642  0.71539134  0.22110041     0.77990
O81         O  0.27230877  0.80147330  0.24693292    -0.58140
O82         O  0.21834532  0.78594132  0.14626743    -0.56590
O83         O  0.26922914  0.75554618  0.23713883    -0.56580
O84         O  0.18759410  0.71158941  0.19652963    -0.55750
C85         C  0.59784788  0.06934672  0.03485452    -0.01630
C86         C  0.53462210  0.95121117  0.43858204    -0.01630
C87         C  0.53736068  0.95385660  0.28090267    -0.01630
C88         C  0.59264464  0.06841809  0.19020713    -0.01630
C89         C  0.93473610  0.41406246  0.19084102    -0.01630
C90         C  0.05581021  0.46670461  0.28379425    -0.01630
C91         C  0.06286674  0.47485515  0.44251675    -0.01600
C92         C  0.94654837  0.41466905  0.03190610    -0.01630
O93         O  0.72952453  0.48294983  0.44583081    -0.56960
C94         C  0.77082227  0.55049532  0.37992986     0.75670
O95         O  0.74104547  0.56974338  0.49097817    -0.58120
C96         C  0.72243973  0.47773840  0.47843566     0.75640
C97         C  0.82482336  0.54743808  0.48107804     0.78030
Cd98       Cd  0.76403338  0.54125514  0.45421375     1.37470
O99         O  0.75886565  0.52313321  0.39450574    -0.56960
O100        O  0.82160302  0.57267073  0.48159332    -0.55770
C101        C  0.71379090  0.55482751  0.47365876     0.77990
O102        O  0.80079587  0.52155160  0.46847758    -0.58140
O103        O  0.78169308  0.57566440  0.40019058    -0.56590
O104        O  0.73519495  0.50224490  0.49973913    -0.56580
O105        O  0.71295003  0.53907697  0.44588281    -0.55750
C106        C  0.66334736  0.34690793  0.03318830    -0.01630
O107        O  0.74232749  0.28526438  0.45330916    -0.56960
C108        C  0.76617782  0.24145682  0.38195312     0.75670
O109        O  0.81745300  0.26918977  0.48996808    -0.58120
C110        C  0.73694803  0.28479450  0.48626808     0.75640
C111        C  0.71334740  0.18431989  0.47723727     0.78030
Cd112      Cd  0.76412662  0.24847374  0.45638678     1.37460
O113        O  0.75254686  0.25556838  0.39686417    -0.56960
O114        O  0.70879615  0.20144464  0.45475422    -0.55770
C115        C  0.83131997  0.29624321  0.47399694     0.77990
O116        O  0.74262183  0.19590797  0.48917903    -0.58140
O117        O  0.77840987  0.22850391  0.40183270    -0.56590
O118        O  0.74447587  0.26767139  0.50559751    -0.56580
O119        O  0.81489802  0.29940921  0.44911049    -0.55750
O120        O  0.75974914  0.52469882  0.32390824    -0.56960
C121        C  0.73914858  0.47801983  0.24986876     0.75670
O122        O  0.74202145  0.57773949  0.24933684    -0.58120
C123        C  0.77115669  0.55133597  0.34118779     0.75640
C124        C  0.83490236  0.56158223  0.24616187     0.78030
Cd125      Cd  0.76983001  0.54519933  0.26593727     1.37470
O126        O  0.73043821  0.48889455  0.27598409    -0.56960
O127        O  0.82202754  0.54896613  0.27519992    -0.55770
C128        C  0.71757417  0.55272428  0.23497750     0.77990
O129        O  0.81920611  0.57129654  0.22668567    -0.58140
O130        O  0.76309082  0.49833803  0.23202908    -0.56590
O131        O  0.78204529  0.57723535  0.32345064    -0.56580
O132        O  0.72029949  0.52770221  0.23134925    -0.55750
C133        C  0.66748789  0.34439759  0.19253029    -0.01630
O134        O  0.75830374  0.25827282  0.32615623    -0.56960
C135        C  0.73788167  0.27975811  0.24277435     0.75670
O136        O  0.80540562  0.26734215  0.22090045    -0.58120
C137        C  0.76755440  0.24131188  0.34329010     0.75640
C138        C  0.71166079  0.18162865  0.24875184     0.78030
Cd139      Cd  0.76590498  0.24345142  0.26858317     1.37460
O140        O  0.74547684  0.28096490  0.27554268    -0.56960
O141        O  0.70959040  0.20446981  0.26381101    -0.55770
C142        C  0.82847429  0.28763211  0.24130678     0.77990
O143        O  0.74042713  0.18623916  0.24417689    -0.58140
O144        O  0.74490423  0.26287852  0.22218698    -0.56590
O145        O  0.77761943  0.22501371  0.32559581    -0.56580
O146        O  0.82478281  0.28293766  0.27442768    -0.55750
C147        C  0.05577824  0.60042954  0.44009844    -0.01630
C148        C  0.94117572  0.54118244  0.03262636    -0.01630
C149        C  0.94149169  0.54335307  0.19170038    -0.01630
C150        C  0.06326191  0.59883773  0.28395369    -0.01630
C151        C  0.46485514  0.41262756  0.02904961    -0.01630
C152        C  0.59193472  0.54138427  0.02935150    -0.01630
C153        C  0.40978920  0.47390141  0.43803660    -0.01630
C154        C  0.53740653  0.60208587  0.43645513    -0.01630
C155        C  0.46302280  0.41549814  0.18762899    -0.01630
C156        C  0.59209729  0.54172989  0.18959175    -0.01630
C157        C  0.40774698  0.47679263  0.28036011    -0.01630
C158        C  0.53770372  0.60503286  0.27790723    -0.01630
O159        O  0.24290924  0.49541609  0.15117569    -0.56960
C160        C  0.26197037  0.53595113  0.23143893     0.75670
O161        O  0.17521271  0.43772468  0.23833368    -0.58120
C162        C  0.23272107  0.46958670  0.13249631     0.75640
C163        C  0.27679381  0.45771450  0.24087852     0.78030
Cd164      Cd  0.22847803  0.47030104  0.20772103     1.37460
O165        O  0.27138830  0.52625679  0.20489838    -0.56960
O166        O  0.26742990  0.47612195  0.25454863    -0.55770
C167        C  0.16130892  0.45146846  0.22258789     0.77990
O168        O  0.25924047  0.43933270  0.21504270    -0.58140
O169        O  0.23595068  0.51532213  0.24608823    -0.56590
O170        O  0.22053599  0.44278913  0.14871114    -0.56580
O171        O  0.17719797  0.47057493  0.19812697    -0.55750
O172        O  0.24625173  0.49911339  0.07945769    -0.56960
C173        C  0.26517151  0.54336937  0.49613926     0.75670
O174        O  0.26467558  0.44926307  0.48907865    -0.58120
C175        C  0.23498952  0.47161454  0.09385498     0.75640
C176        C  0.17729791  0.46376531  0.99004844     0.78030
Cd177      Cd  0.24029574  0.47950693  0.01939001     1.37460
O178        O  0.26118597  0.53803684  0.02930236    -0.56960
O179        O  0.17872385  0.45030797  0.01848205    -0.55770
C180        C  0.29383421  0.47189508  0.99644979     0.77990
O181        O  0.20334073  0.47823490  0.47287242    -0.58140
O182        O  0.25768817  0.51919671  0.47550248    -0.56590
O183        O  0.22582730  0.44671979  0.07350445    -0.56580
O184        O  0.29688207  0.49489734  0.01648359    -0.55750
C185        C  0.33336334  0.49146669  0.26552224    -0.20450
C186        C  0.30868586  0.46100085  0.25238810    -0.08490
C187        C  0.31619307  0.43604240  0.24805687     0.30360
C188        C  0.34769517  0.44166552  0.25711901    -0.20450
C189        C  0.37393508  0.47314933  0.26772637    -0.08510
C190        C  0.36515887  0.49764689  0.27301502     0.30370
F191        F  0.38668377  0.52813090  0.28501597    -0.19030
H192        H  0.32832562  0.51132573  0.26909104     0.18730
H193        H  0.35131828  0.42081707  0.25578821     0.18740
F194        F  0.29295318  0.40598487  0.23595406    -0.19020
C195        C  0.46893991  0.51451739  0.29271305    -0.20450
C196        C  0.44046194  0.51002219  0.27474282    -0.08490
C197        C  0.44440686  0.53655579  0.25430719     0.30360
C198        C  0.47385611  0.56713959  0.25672833    -0.20450
C199        C  0.50318640  0.57152275  0.27392938    -0.08510
C200        C  0.49896018  0.54346128  0.29202731     0.30370
F201        F  0.52264586  0.54425496  0.31335276    -0.19030
H202        H  0.46786861  0.49574012  0.30953948     0.18730
H203        H  0.47159826  0.58694148  0.24648574     0.18740
F204        F  0.42023706  0.53352099  0.23171938    -0.19020
C205        C  0.58580310  0.59301526  0.20019597    -0.20450
C206        C  0.58975820  0.56766639  0.21353751    -0.08490
C207        C  0.58869203  0.56446019  0.25108540     0.30360
C208        C  0.57622230  0.57999479  0.27234824    -0.20450
C209        C  0.56421076  0.59959082  0.25782819    -0.08510
C210        C  0.57330861  0.60872160  0.22159994     0.30370
F211        F  0.57113054  0.63304891  0.20572549    -0.19030
H212        H  0.59081014  0.59995372  0.17269572     0.18730
H213        H  0.57462268  0.57436426  0.30006929     0.18740
F214        F  0.59523348  0.54263541  0.26698362    -0.19020
C215        C  0.44225394  0.42064821  0.24872016    -0.20450
C216        C  0.43865512  0.42074981  0.21112401    -0.08490
C217        C  0.41859281  0.43291756  0.19810558     0.30360
C218        C  0.40836386  0.44957289  0.22102809    -0.20450
C219        C  0.41410254  0.45193313  0.25848344    -0.08510
C220        C  0.43098341  0.43625900  0.27186214     0.30370
F221        F  0.44035638  0.43866535  0.30660435    -0.19030
H222        H  0.45753511  0.41186899  0.26031880     0.18730
H223        H  0.39647649  0.46172781  0.20884733     0.18740
F224        F  0.40977301  0.43051558  0.16317714    -0.19020
C225        C  0.50292622  0.47447767  0.21149843    -0.20450
C226        C  0.49819034  0.44657125  0.19224093    -0.08490
C227        C  0.52525893  0.45034629  0.17234940     0.30360
C228        C  0.55535351  0.48002178  0.17333181    -0.20450
C229        C  0.55971816  0.50786236  0.19288875    -0.08510
C230        C  0.53152953  0.50420558  0.21040934     0.30370
F231        F  0.52861858  0.52952484  0.22313729    -0.19030
H232        H  0.48341437  0.47550624  0.22487312     0.18730
H233        H  0.57519109  0.48159789  0.15767398     0.18740
F234        F  0.52236868  0.42542156  0.15127499    -0.19020
C235        C  0.51881460  0.61241874  0.37644453    -0.20450
C236        C  0.54392072  0.61102966  0.39617706    -0.08490
C237        C  0.57180841  0.61648502  0.37708815     0.30360
C238        C  0.57130108  0.61678549  0.33939248    -0.20450
C239        C  0.54296304  0.61118702  0.31952740    -0.08510
C240        C  0.51811960  0.61222878  0.33922437     0.30370
F241        F  0.49197342  0.61140714  0.32238609    -0.19030
H242        H  0.49787035  0.61069035  0.38995927     0.18730
H243        H  0.59351316  0.62208553  0.32606602     0.18740
F244        F  0.59961954  0.62179091  0.39433657    -0.19020
C245        C  0.32132268  0.44452983  0.96715600    -0.20450
C246        C  0.32324428  0.47270024  0.98190196    -0.08490
C247        C  0.35335876  0.50226188  0.48125147     0.30360
C248        C  0.38105446  0.50325326  0.46687246    -0.20450
C249        C  0.37991861  0.47464175  0.45389220    -0.08510
C250        C  0.34901249  0.44538530  0.95317618     0.30370
F251        F  0.34573063  0.41712909  0.93961085    -0.19030
H252        H  0.29836538  0.42166075  0.96665551     0.18730
H253        H  0.40288406  0.52676429  0.46518059     0.18740
F254        F  0.35591447  0.53064841  0.49339559    -0.19020
C255        C  0.40157682  0.49453145  0.37980980    -0.20450
C256        C  0.39984169  0.46771099  0.39749331    -0.08490
C257        C  0.39233031  0.43983556  0.37610110     0.30360
C258        C  0.39172328  0.44152854  0.33837607    -0.20450
C259        C  0.40331577  0.47190782  0.32153080    -0.08510
C260        C  0.40755855  0.49829950  0.34376764     0.30370
F261        F  0.42118432  0.52926768  0.33231541    -0.19030
H262        H  0.40529321  0.51582355  0.39502227     0.18730
H263        H  0.38397432  0.41945798  0.32259057     0.18740
F264        F  0.38530253  0.41119861  0.39105704    -0.19020
C265        C  0.46524255  0.51535717  0.41217573    -0.20450
C266        C  0.44401235  0.50662737  0.44117534    -0.08490
C267        C  0.45725172  0.52690277  0.47219640     0.30360
C268        C  0.48679505  0.55741675  0.47081792    -0.20450
C269        C  0.50419616  0.56866471  0.43866211    -0.08510
C270        C  0.49347831  0.54518722  0.41028802     0.30370
F271        F  0.51050273  0.54961661  0.38018520    -0.19030
H272        H  0.45982020  0.49920450  0.38926474     0.18730
H273        H  0.49599990  0.57239046  0.99493349     0.18740
F274        F  0.44189497  0.51743403  0.00372116    -0.19020
C275        C  0.57105525  0.55007876  0.09013784    -0.20450
C276        C  0.59557969  0.54788154  0.07084049    -0.08490
C277        C  0.61895912  0.54430630  0.09175279     0.30360
C278        C  0.61919229  0.54558687  0.12882296    -0.20450
C279        C  0.59509194  0.54817566  0.14835772    -0.08510
C280        C  0.57033625  0.54957134  0.12776573     0.30370
F281        F  0.54401586  0.54814914  0.14374976    -0.19030
H282        H  0.55113664  0.55054396  0.07602364     0.18730
H283        H  0.63718241  0.54107000  0.14162436     0.18740
F284        F  0.63993389  0.53570970  0.07742555    -0.19020
C285        C  0.58101219  0.55662667  0.46833445    -0.20450
C286        C  0.58700112  0.56518618  0.50508215    -0.08490
C287        C  0.58532018  0.59281934  0.51650275     0.30360
C288        C  0.57223470  0.60694125  0.49339562    -0.20450
C289        C  0.56233595  0.59547868  0.45747829    -0.08510
C290        C  0.56920128  0.57126061  0.44514414     0.30370
F291        F  0.56194386  0.55921891  0.41124561    -0.19030
H292        H  0.58280955  0.53618281  0.45779465     0.18730
H293        H  0.56791955  0.62545138  0.00501282     0.18740
F294        F  0.59456143  0.60543660  0.05008724    -0.19020
C295        C  0.44097058  0.38312817  0.12614415    -0.20450
C296        C  0.45462568  0.41271878  0.14638681    -0.08490
C297        C  0.46344857  0.44115835  0.12648183     0.30360
C298        C  0.46418515  0.44051573  0.08925521    -0.20450
C299        C  0.45551245  0.41157727  0.06939863    -0.08510
C300        C  0.43931545  0.38242757  0.08875641     0.30370
F301        F  0.42190439  0.35284372  0.07199640    -0.19030
H302        H  0.43149807  0.35979641  0.13811984     0.18730
H303        H  0.47230323  0.46342902  0.07659828     0.18740
F304        F  0.47295829  0.47039371  0.14292689    -0.19020
C305        C  0.40369877  0.43820433  0.99242700    -0.20450
C306        C  0.41559062  0.44834663  0.45757624    -0.08490
C307        C  0.43847070  0.43985902  0.44498444     0.30360
C308        C  0.45124541  0.42545333  0.46741565    -0.20450
C309        C  0.44191222  0.41860907  0.50345023    -0.08510
C310        C  0.41570230  0.42270965  0.01451349     0.30370
F311        F  0.40287780  0.41411015  0.04733938    -0.19030
H312        H  0.38657626  0.44415018  0.00442310     0.18730
H313        H  0.47079186  0.42193776  0.45749349     0.18740
F314        F  0.45082929  0.44779739  0.41192245    -0.19020
C315        C  0.50095886  0.47435337  0.01962431    -0.20450
C316        C  0.50005182  0.44422517  0.52502749    -0.08490
C317        C  0.53129417  0.44680317  0.53019504     0.30360
C318        C  0.56031686  0.47759912  0.53238217    -0.20450
C319        C  0.56042236  0.50692504  0.52499551    -0.08510
C320        C  0.52937241  0.50414600  0.01940190     0.30370
F321        F  0.52516465  0.53039636  0.01641884    -0.19030
H322        H  0.47886410  0.47588354  0.01726184     0.18730
H323        H  0.58306244  0.47831407  0.53933012     0.18740
F324        F  0.53516563  0.42046690  0.53181247    -0.19020
C325        C  0.99627988  0.59434655  0.21528004    -0.20450
C326        C  0.97233733  0.56111709  0.21732501    -0.08490
C327        C  0.97580757  0.54440777  0.24685043     0.30360
C328        C  0.00276538  0.55869791  0.26961073    -0.20450
C329        C  0.03007615  0.58909787  0.26337973    -0.08510
C330        C  0.02507524  0.60809816  0.23727405     0.30370
F331        F  0.04688107  0.64022456  0.23362026    -0.19030
H332        H  0.99306543  0.60968704  0.19640056     0.18730
H333        H  0.00178590  0.54407786  0.29141372     0.18740
F334        F  0.95415779  0.51291332  0.25381382    -0.19020
C335        C  0.97324989  0.57097776  0.13274345    -0.20450
C336        C  0.94406805  0.55219648  0.15125165    -0.08490
C337        C  0.91503305  0.53545224  0.13022717     0.30360
C338        C  0.91537290  0.53545090  0.09335727    -0.20450
C339        C  0.94430716  0.55158256  0.07370324    -0.08510
C340        C  0.97370516  0.57044330  0.09495859     0.30370
F341        F  0.00387627  0.58448094  0.08084910    -0.19030
H342        H  0.99656202  0.58331617  0.14689962     0.18730
H343        H  0.89191416  0.52029985  0.08084314     0.18740
F344        F  0.88571498  0.51624447  0.14545477    -0.19020
C345        C  0.08602652  0.61064851  0.38288269    -0.20450
C346        C  0.05726792  0.60584033  0.39926290    -0.08490
C347        C  0.03361455  0.60802240  0.37741046     0.30360
C348        C  0.03595958  0.60819361  0.33999368    -0.20450
C349        C  0.06262105  0.60766925  0.32384911    -0.08510
C350        C  0.08902488  0.61212613  0.34627034     0.30370
F351        F  0.11665086  0.61457476  0.33245681    -0.19030
H352        H  0.10611284  0.61201777  0.39876958     0.18730
H353        H  0.01649937  0.60782333  0.32392883     0.18740
F354        F  0.00940550  0.61177298  0.39173613    -0.19020
C355        C  0.96640258  0.55034468  0.47147138    -0.20450
C356        C  0.96903698  0.56263455  0.50656683    -0.08490
C357        C  0.99452326  0.59503591  0.51252026     0.30360
C358        C  0.02140564  0.60876451  0.48974123    -0.20450
C359        C  0.02243015  0.59193118  0.45839503    -0.08510
C360        C  0.99168325  0.56507650  0.44747734     0.30370
F361        F  0.98403205  0.55413800  0.41321365    -0.19030
H362        H  0.94409830  0.52915954  0.46196829     0.18730
H363        H  0.04103273  0.63286760  0.49708342     0.18740
F364        F  0.99237808  0.61467141  0.53776272    -0.19020
C365        C  0.69523457  0.30975121  0.18107073    -0.20450
C366        C  0.68514547  0.32606445  0.20514291    -0.08490
C367        C  0.69283618  0.32644526  0.24195451     0.30360
C368        C  0.71048415  0.31190445  0.25370784    -0.20450
C369        C  0.72071634  0.29628917  0.22946203    -0.08510
C370        C  0.71282020  0.29513875  0.19301278     0.30370
F371        F  0.72192953  0.27980782  0.16870609    -0.19030
H372        H  0.68976849  0.30797309  0.15278111     0.18730
H373        H  0.71580422  0.31259171  0.28202021     0.18740
F374        F  0.68289248  0.34070417  0.26670415    -0.19020
C375        C  0.87416784  0.54133853  0.25305620    -0.20450
C376        C  0.86503085  0.56158777  0.23518494    -0.08490
C377        C  0.88301402  0.57853846  0.20576706     0.30360
C378        C  0.90829511  0.57370315  0.19354456    -0.20450
C379        C  0.91502918  0.55003425  0.20854773    -0.08510
C380        C  0.89867040  0.53572375  0.24036554     0.30370
F381        F  0.90491495  0.51532050  0.25934797    -0.19030
H382        H  0.86126808  0.52843204  0.27645494     0.18730
H383        H  0.92203660  0.58823901  0.17141875     0.18740
F384        F  0.87607671  0.59953451  0.18856310    -0.19020
C385        C  0.65705664  0.52071578  0.22746297    -0.20450
C386        C  0.68615095  0.55081106  0.22469481    -0.08490
C387        C  0.68418329  0.57772854  0.21299630     0.30360
C388        C  0.65381486  0.57398004  0.20242970    -0.20450
C389        C  0.62429324  0.54344035  0.20383412    -0.08510
C390        C  0.62650090  0.51705624  0.21813526     0.30370
F391        F  0.59969478  0.48798853  0.22457053    -0.19030
H392        H  0.65787354  0.49983341  0.23781105     0.18730
H393        H  0.65327239  0.59504110  0.19224484     0.18740
F394        F  0.71159945  0.60732391  0.21060730    -0.19020
C395        C  0.73831211  0.42877372  0.22646415    -0.20450
C396        C  0.72135585  0.44360897  0.23955861    -0.08490
C397        C  0.68726981  0.42583182  0.24108843     0.30360
C398        C  0.67016651  0.39420393  0.22692801    -0.20450
C399        C  0.68646459  0.37946611  0.20999017    -0.08510
C400        C  0.72141323  0.39684042  0.21329776     0.30370
F401        F  0.73987610  0.38334860  0.20371517    -0.19030
H402        H  0.76485480  0.44191357  0.22666647     0.18730
H403        H  0.64416587  0.38205381  0.23008577     0.18740
F404        F  0.67025942  0.43946263  0.25496830    -0.19020
C405        C  0.67849873  0.30234629  0.03483524    -0.20450
C406        C  0.68612823  0.33341989  0.02216756    -0.08490
C407        C  0.71437250  0.34984168  0.50086639     0.30360
C408        C  0.73056436  0.33363895  0.48905113    -0.20450
C409        C  0.72162233  0.30251584  0.50097857    -0.08510
C410        C  0.69659528  0.28762546  0.02543115     0.30370
F411        F  0.68835420  0.25796646  0.03858832    -0.19030
H412        H  0.65774257  0.28881390  0.05156787     0.18730
H413        H  0.75079457  0.34581163  0.47113984     0.18740
F414        F  0.72750164  0.38142749  0.49178161    -0.19020
C415        C  0.64026969  0.32075964  0.13096421    -0.20450
C416        C  0.66721047  0.34568711  0.15075059    -0.08490
C417        C  0.69420916  0.36789889  0.13041826     0.30360
C418        C  0.69266193  0.36638347  0.09332851    -0.20450
C419        C  0.66346229  0.34551898  0.07441820    -0.08510
C420        C  0.63766253  0.32115970  0.09404040     0.30370
F421        F  0.61093300  0.29569363  0.07805359    -0.19030
H422        H  0.62065638  0.30016410  0.14391528     0.18730
H423        H  0.71416346  0.38327262  0.07901414     0.18740
F424        F  0.72272879  0.39141784  0.14484476    -0.19020
C425        C  0.85088649  0.51662892  0.00417160    -0.20450
C426        C  0.85430183  0.54669995  0.49449541    -0.08490
C427        C  0.88536596  0.57453116  0.49759366     0.30360
C428        C  0.91248714  0.57189014  0.50902781    -0.20450
C429        C  0.90987328  0.54144733  0.51747113    -0.08510
C430        C  0.87757275  0.51395188  0.01641355     0.30370
F431        F  0.87029720  0.48512736  0.03112341    -0.19030
H432        H  0.82688654  0.49493968  0.00373291     0.18730
H433        H  0.93574778  0.59418059  0.51155990     0.18740
F434        F  0.88971227  0.60424674  0.48923538    -0.19020
C435        C  0.68341352  0.57772251  0.50671375    -0.20450
C436        C  0.68320638  0.55282787  0.48598680    -0.08490
C437        C  0.65305551  0.52446915  0.47788614     0.30360
C438        C  0.62397390  0.52059499  0.49139443    -0.20450
C439        C  0.62386592  0.54458316  0.51396790    -0.08510
C440        C  0.65406901  0.57418929  0.51958160     0.30370
F441        F  0.65527844  0.59935404  0.53874464    -0.19030
H442        H  0.70622809  0.59997544  0.51275485     0.18730
H443        H  0.60159003  0.49903071  0.48287945     0.18740
F444        F  0.65159453  0.49976730  0.45753275    -0.19020
C445        C  0.67526531  0.38619935  0.48222626    -0.20450
C446        C  0.67432626  0.38164091  0.01949214    -0.08490
C447        C  0.68036472  0.40884556  0.04158142     0.30360
C448        C  0.69519897  0.44000273  0.02775138    -0.20450
C449        C  0.70159414  0.44464930  0.49140812    -0.08510
C450        C  0.68904737  0.41729745  0.46827395     0.30370
F451        F  0.69137117  0.42051135  0.43236313    -0.19030
H452        H  0.66753742  0.36565082  0.46385620     0.18730
H453        H  0.70187719  0.46062803  0.04572658     0.18740
F454        F  0.67076308  0.40595219  0.07586521    -0.19020
C455        C  0.92013823  0.48083638  0.50723811    -0.20450
C456        C  0.94028844  0.50718893  0.53108617    -0.08490
C457        C  0.96354292  0.50291951  0.05080988     0.30360
C458        C  0.96323958  0.47349818  0.05086585    -0.20450
C459        C  0.94283260  0.44642535  0.52823345    -0.08510
C460        C  0.91966867  0.45064407  0.50732971     0.30370
F461        F  0.89453665  0.42600375  0.48883177    -0.19030
H462        H  0.90411917  0.48302522  0.48796385     0.18730
H463        H  0.97856406  0.47196388  0.07137924     0.18740
F464        F  0.98818614  0.52727063  0.06998501    -0.19020
C465        C  0.90790888  0.38009145  0.47866264    -0.20450
C466        C  0.91838677  0.38194886  0.51452565    -0.08490
C467        C  0.90466746  0.35147327  0.03241847     0.30360
C468        C  0.87748037  0.32352103  0.51825921    -0.20450
C469        C  0.86386872  0.32387049  0.48513818    -0.08510
C470        C  0.88033231  0.35201175  0.46453327     0.30370
F471        F  0.86960386  0.35265988  0.43090975    -0.19030
H472        H  0.92080503  0.40081693  0.46165684     0.18730
H473        H  0.86654776  0.30162096  0.03386460     0.18740
F474        F  0.91778537  0.34764545  0.06319766    -0.19020
C475        C  0.15326372  0.49502727  0.46385372    -0.20450
C476        C  0.14829291  0.46602147  0.97887428    -0.08490
C477        C  0.11633656  0.44121987  0.98438594     0.30360
C478        C  0.08983549  0.44483553  0.97315623    -0.20450
C479        C  0.09395584  0.47424726  0.45824189    -0.08510
C480        C  0.12706546  0.49951988  0.45410081     0.30370
F481        F  0.13524994  0.52792113  0.43776103    -0.19030
H482        H  0.17793977  0.51474721  0.45966592     0.18730
H483        H  0.06594523  0.42376037  0.97593925     0.18740
F484        F  0.11060551  0.41293140  0.99935007    -0.19020
C485        C  0.08760471  0.53782335  0.46128061    -0.20450
C486        C  0.06411246  0.50901790  0.44264068    -0.08490
C487        C  0.03842903  0.51134445  0.42576669     0.30360
C488        C  0.03808104  0.54052359  0.42466923    -0.20450
C489        C  0.06069585  0.56937459  0.44337314    -0.08510
C490        C  0.08741629  0.56768782  0.45962430     0.30370
F491        F  0.11541567  0.59459300  0.47062048    -0.19030
H492        H  0.10619464  0.53775620  0.47833983     0.18730
H493        H  0.02062947  0.54036060  0.40619946     0.18740
F494        F  0.01222828  0.48510723  0.41059187    -0.19020
C495        C  0.00952211  0.45131031  0.52588859    -0.20450
C496        C  0.98026769  0.42302555  0.51493686    -0.08490
C497        C  0.98359348  0.40577908  0.48528798     0.30360
C498        C  0.01065910  0.42116746  0.46294861    -0.20450
C499        C  0.03459683  0.45420167  0.46852546    -0.08510
C500        C  0.03577161  0.46682752  0.50324970     0.30370
F501        F  0.06273006  0.49400871  0.01608584    -0.19030
H502        H  0.01291895  0.46219219  0.05197400     0.18730
H503        H  0.01336797  0.40667958  0.44217593     0.18740
F504        F  0.96227496  0.37369759  0.47857095    -0.19020
C505        C  0.09220193  0.43938427  0.28138263    -0.20450
C506        C  0.08061418  0.45877876  0.26471847    -0.08490
C507        C  0.08955925  0.46672755  0.22886543     0.30360
C508        C  0.11476809  0.46280679  0.21428403    -0.20450
C509        C  0.12976257  0.44831341  0.23390342    -0.08510
C510        C  0.11659767  0.43471505  0.26663167     0.30370
F511        F  0.12830485  0.41819343  0.28544120    -0.19030
H512        H  0.08295027  0.42780531  0.30650482     0.18730
H513        H  0.12311733  0.47189107  0.18791114     0.18740
F514        F  0.07429122  0.47868826  0.20805171    -0.19020
C515        C  0.02799558  0.43976036  0.34403941    -0.20450
C516        C  0.05612058  0.45910102  0.32425294    -0.08490
C517        C  0.08573191  0.47740460  0.34368581     0.30360
C518        C  0.08671625  0.47858470  0.38055998    -0.20450
C519        C  0.05862228  0.46311908  0.40165486    -0.08510
C520        C  0.02865447  0.44258638  0.38173135     0.30370
F521        F  0.99883291  0.42837087  0.39657820    -0.19030
H522        H  0.00452957  0.42505622  0.33052315     0.18730
H523        H  0.11062597  0.49423677  0.39154761     0.18740
F524        F  0.11405984  0.49678059  0.32673810    -0.19020
C525        C  0.04990229  0.51365929  0.31041011    -0.20450
C526        C  0.06512433  0.50425351  0.28444930    -0.08490
C527        C  0.08812260  0.53065646  0.26375117     0.30360
C528        C  0.08888369  0.56125774  0.26383464    -0.20450
C529        C  0.06765907  0.56731998  0.28513629    -0.08510
C530        C  0.05086259  0.54318155  0.31107429     0.30370
F531        F  0.03384958  0.54682192  0.33792998    -0.19030
H532        H  0.03559449  0.49751147  0.33117214     0.18730
H533        H  0.10710059  0.58011012  0.24790774     0.18740
F534        F  0.11179501  0.52888528  0.24564368    -0.19020
C535        C  0.90979266  0.36547430  0.23532949    -0.20450
C536        C  0.90499175  0.38148230  0.20560364    -0.08490
C537        C  0.87284274  0.36445697  0.18954253     0.30360
C538        C  0.84988650  0.33288856  0.19929875    -0.20450
C539        C  0.85606810  0.31763084  0.22750179    -0.08510
C540        C  0.88593485  0.33462349  0.24615655     0.30370
F541        F  0.89215435  0.32154528  0.27521019    -0.19030
H542        H  0.93187013  0.37627491  0.25160983     0.18730
H543        H  0.82580445  0.32131592  0.18643214     0.18740
F544        F  0.86074056  0.37828891  0.16742409    -0.19020
C545        C  0.91522568  0.40738452  0.12595165    -0.20450
C546        C  0.93954736  0.40893384  0.14978392    -0.08490
C547        C  0.96828108  0.41262504  0.13283422     0.30360
C548        C  0.97002157  0.41157833  0.09523172    -0.20450
C549        C  0.94475731  0.40966882  0.07289916    -0.08510
C550        C  0.91657923  0.40586037  0.08941422     0.30370
F551        F  0.89113355  0.40411133  0.06990591    -0.19030
H552        H  0.89717596  0.41317294  0.13461291     0.18730
H553        H  0.99215903  0.41423175  0.08395646     0.18740
F554        F  0.99690098  0.42233679  0.15060553    -0.19020
C555        C  0.98454801  0.40923376  0.21654831    -0.20450
C556        C  0.96510186  0.42426156  0.21688804    -0.08490
C557        C  0.96890567  0.44304093  0.24833640     0.30360
C558        C  0.99594011  0.45354620  0.27129210    -0.20450
C559        C  0.02101346  0.44623205  0.26474537    -0.08510
C560        C  0.01259021  0.42056377  0.23904420     0.30370
F561        F  0.03005444  0.40492572  0.23643762    -0.19030
H562        H  0.97788852  0.38839968  0.19896480     0.18730
H563        H  0.99619138  0.46721273  0.29440650     0.18740
F564        F  0.94544601  0.44991488  0.25857109    -0.19020
C565        C  0.95831613  0.47299932  0.17651892    -0.20450
C566        C  0.93109614  0.44519421  0.18978916    -0.08490
C567        C  0.90418187  0.44862128  0.20062560     0.30360
C568        C  0.90539118  0.47910200  0.19828676    -0.20450
C569        C  0.93431103  0.50736270  0.18804068    -0.08510
C570        C  0.96013728  0.50292988  0.17575221     0.30370
F571        F  0.98899072  0.52839760  0.16563186    -0.19030
H572        H  0.97958525  0.47184803  0.16791174     0.18730
H573        H  0.88415020  0.48054731  0.20597383     0.18740
F574        F  0.87770722  0.42373051  0.21554439    -0.19020
C575        C  0.65281857  0.09853974  0.20837239    -0.20450
C576        C  0.62251347  0.09830918  0.20847786    -0.08490
C577        C  0.62260222  0.12617174  0.22271331     0.30360
C578        C  0.65156664  0.15231194  0.23676764    -0.20450
C579        C  0.68137714  0.15213968  0.23631360    -0.08510
C580        C  0.68171669  0.12487484  0.22206319     0.30370
F581        F  0.70990638  0.12369964  0.22090012    -0.19030
H582        H  0.65397242  0.07787346  0.19724769     0.18730
H583        H  0.65078199  0.17349617  0.24682405     0.18740
F584        F  0.59601303  0.13004084  0.22078550    -0.19020
C585        C  0.54809834  0.97939798  0.21996440    -0.20450
C586        C  0.55857129  0.98228371  0.25611172    -0.08490
C587        C  0.58590072  0.01189533  0.26759480     0.30360
C588        C  0.59840512  0.03882806  0.24554740    -0.20450
C589        C  0.58556692  0.03707673  0.21041341    -0.08510
C590        C  0.56108803  0.00609146  0.19762157     0.30370
F591        F  0.54742831  0.00191991  0.16450150    -0.19030
H592        H  0.52792052  0.95654315  0.20968484     0.18730
H593        H  0.61679484  0.06151478  0.25787657     0.18740
F594        F  0.59976680  0.01585886  0.30058091    -0.19020
C595        C  0.54207779  0.98276914  0.34289998    -0.20450
C596        C  0.54746432  0.96066731  0.32210355    -0.08490
C597        C  0.55965675  0.94325025  0.34180913     0.30360
C598        C  0.55743057  0.94132361  0.37904881    -0.20450
C599        C  0.54549028  0.95866032  0.39893886    -0.08510
C600        C  0.54055524  0.98155323  0.38007586     0.30370
F601        F  0.53179807  0.00133317  0.39749509    -0.19030
H602        H  0.53800929  0.00094328  0.33136024     0.18730
H603        H  0.56443956  0.92525252  0.39158286     0.18740
F604        F  0.57429422  0.92812102  0.32579486    -0.19020
C605        C  0.66047617  0.11010177  0.53263792    -0.20450
C606        C  0.62850537  0.09889222  0.51800360    -0.08490
C607        C  0.62651398  0.11358253  0.48601272     0.30360
C608        C  0.65422117  0.14065907  0.47267290    -0.20450
C609        C  0.68521575  0.15327492  0.48952985    -0.08510
C610        C  0.68816653  0.13697881  0.51908602     0.30370
F611        F  0.71769861  0.14734956  0.53556528    -0.19030
H612        H  0.66442777  0.09829467  0.55512779     0.18730
H613        H  0.65127615  0.15191185  0.44899698     0.18740
F614        F  0.59779125  0.10149832  0.46716950    -0.19020
C615        C  0.60890766  0.04740277  0.13268210    -0.20450
C616        C  0.60420510  0.07094377  0.15114868    -0.08490
C617        C  0.60915728  0.09849817  0.13182978     0.30360
C618        C  0.60985921  0.09808426  0.09501676    -0.20450
C619        C  0.60617973  0.07074579  0.07555910    -0.08510
C620        C  0.61135063  0.04816598  0.09510258     0.30370
F621        F  0.61992067  0.02792347  0.07855592    -0.19030
H622        H  0.61008448  0.02826429  0.14692532     0.18730
H623        H  0.61092863  0.11861363  0.08156694     0.18740
F624        F  0.60834363  0.12395881  0.14792181    -0.19020
C625        C  0.59904394  0.03804893  0.47731679    -0.20450
C626        C  0.58958932  0.03674529  0.51328969    -0.08490
C627        C  0.56880055  0.00445121  0.02540975     0.30360
C628        C  0.55426955  0.97759910  0.00153867    -0.20450
C629        C  0.55730443  0.98104807  0.46431539    -0.08510
C630        C  0.58350870  0.01129394  0.45340503     0.30370
F631        F  0.59587195  0.01557621  0.42027668    -0.19030
H632        H  0.61842934  0.05987236  0.46632534     0.18730
H633        H  0.53922447  0.95369305  0.01249384     0.18740
F634        F  0.56151522  0.99756463  0.06015163    -0.19020
C635        C  0.12615572  0.65721296  0.21565262    -0.20450
C636        C  0.14231366  0.68701508  0.23508075    -0.08490
C637        C  0.13185773  0.68851204  0.26929874     0.30360
C638        C  0.10712005  0.66061399  0.28445380    -0.20450
C639        C  0.09182760  0.62955367  0.26648220    -0.08510
C640        C  0.10066749  0.62912511  0.23062923     0.30370
F641        F  0.08355890  0.60213166  0.20933695    -0.19030
H642        H  0.13309727  0.65569485  0.18859692     0.18730
H643        H  0.09997236  0.66437126  0.31050748     0.18740
F644        F  0.14615130  0.71683249  0.28886223    -0.19020
C645        C  0.31512710  0.58567863  0.24261001    -0.20450
C646        C  0.28104734  0.56945396  0.24502802    -0.08490
C647        C  0.26589750  0.58508579  0.26134058     0.30360
C648        C  0.28460418  0.61755553  0.27245444    -0.20450
C649        C  0.31870067  0.63534590  0.26691960    -0.08510
C650        C  0.33402992  0.61788206  0.25456394     0.30370
F651        F  0.36700491  0.63076851  0.25540864    -0.19030
H652        H  0.32726557  0.57306024  0.23220207     0.18730
H653        H  0.27221373  0.62947079  0.28398109     0.18740
F654        F  0.23294742  0.56948215  0.26519268    -0.19020
C655        C  0.29987887  0.67623087  0.22780313    -0.20450
C656        C  0.32241002  0.69048161  0.25695659    -0.08490
C657        C  0.33395473  0.72380258  0.26542637     0.30360
C658        C  0.31904242  0.73983125  0.25011225    -0.20450
C659        C  0.29382962  0.72385372  0.22451731    -0.08510
C660        C  0.28547355  0.69261924  0.21199855     0.30370
F661        F  0.26199819  0.67714853  0.18608056    -0.19030
H662        H  0.29295852  0.65230526  0.21700135     0.18730
H663        H  0.32645664  0.76446650  0.25918460     0.18740
F664        F  0.35777492  0.74009277  0.29076904    -0.19020
C665        C  0.56709325  0.89739012  0.23706025    -0.20450
C666        C  0.54461295  0.86685816  0.24973776    -0.08490
C667        C  0.52063122  0.86473599  0.27328888     0.30360
C668        C  0.51856847  0.89243543  0.28257684    -0.20450
C669        C  0.53952228  0.92319969  0.26798812    -0.08510
C670        C  0.56520958  0.92517758  0.24623403     0.30370
F671        F  0.59013723  0.95386117  0.23506427    -0.19030
H672        H  0.58626146  0.89984272  0.21958885     0.18730
H673        H  0.50068868  0.88995065  0.30194081     0.18740
F674        F  0.49915442  0.83585307  0.28771721    -0.19020
C675        C  0.52245214  0.63644946  0.23129041    -0.20450
C676        C  0.53937547  0.63676258  0.26288839    -0.08490
C677        C  0.56292959  0.66839833  0.27675930     0.30360
C678        C  0.56528517  0.69691839  0.26307668    -0.20450
C679        C  0.54580756  0.69554842  0.23389818    -0.08510
C680        C  0.52468607  0.66486278  0.21770072     0.30370
F681        F  0.50666545  0.66210079  0.18788213    -0.19030
H682        H  0.51022899  0.61481771  0.21437943     0.18730
H683        H  0.58271871  0.72024716  0.27529798     0.18740
F684        F  0.58516757  0.67250735  0.30261592    -0.19020
C685        C  0.43134263  0.72618304  0.27294540    -0.20450
C686        C  0.43610042  0.72315328  0.23668899    -0.08490
C687        C  0.40920204  0.70433075  0.21386007     0.30360
C688        C  0.37800050  0.68801544  0.22759074    -0.20450
C689        C  0.37276979  0.68965836  0.26446811    -0.08510
C690        C  0.40018702  0.71044350  0.28674679     0.30370
F691        F  0.39748881  0.71813412  0.32101018    -0.19030
H692        H  0.45182175  0.74188525  0.29063422     0.18730
H693        H  0.35757546  0.67357643  0.20932656     0.18740
F694        F  0.41298136  0.70135943  0.17843610    -0.19020
C695        C  0.57032468  0.89666502  0.97025048    -0.20450
C696        C  0.54244269  0.86564123  0.46994355    -0.08490
C697        C  0.51196824  0.86256768  0.46037560     0.30360
C698        C  0.50944673  0.88978340  0.45141614    -0.20450
C699        C  0.53725667  0.92122314  0.45099948    -0.08510
C700        C  0.56802110  0.92401335  0.96027859     0.30370
F701        F  0.59620157  0.95305339  0.95861511    -0.19030
H702        H  0.59405268  0.89965770  0.97743395     0.18730
H703        H  0.48532969  0.88554830  0.44422989     0.18740
F704        F  0.48406317  0.83311171  0.46051753    -0.19020
C705        C  0.50883608  0.63226281  0.96356004    -0.20450
C706        C  0.53745326  0.63258291  0.45260723    -0.08490
C707        C  0.56697832  0.66322466  0.45320208     0.30360
C708        C  0.56778692  0.69184351  0.46506394    -0.20450
C709        C  0.53936927  0.69099511  0.47681075    -0.08510
C710        C  0.50980443  0.66080566  0.97591936     0.30370
F711        F  0.48127477  0.65893145  0.98566512    -0.19030
H712        H  0.48520569  0.61038700  0.96141617     0.18730
H713        H  0.59075451  0.71468763  0.46520022     0.18740
F714        F  0.59532405  0.66552033  0.44210822    -0.19020
C715        C  0.30671866  0.63445699  0.48732208    -0.20450
C716        C  0.31003951  0.63757985  0.44984237    -0.08490
C717        C  0.29318631  0.60871155  0.42841864     0.30360
C718        C  0.27824706  0.57848788  0.44413743    -0.20450
C719        C  0.27827231  0.57582948  0.48127235    -0.08510
C720        C  0.29152489  0.60403834  0.00293353     0.30370
F721        F  0.29076874  0.60240629  0.03904210    -0.19030
H722        H  0.31749348  0.65593812  0.00473095     0.18730
H723        H  0.26650562  0.55691735  0.42687125     0.18740
F724        F  0.28933267  0.60875292  0.39254351    -0.19020
C725        C  0.31527538  0.68549967  0.37238919    -0.20450
C726        C  0.33050350  0.67218537  0.39362353    -0.08490
C727        C  0.34787868  0.65914315  0.37586070     0.30360
C728        C  0.34920858  0.65906968  0.33877306    -0.20450
C729        C  0.33409544  0.67265914  0.31774579    -0.08510
C730        C  0.31495540  0.68363279  0.33544256     0.30370
F731        F  0.29409896  0.69090634  0.31789749    -0.19030
H732        H  0.30275224  0.69721146  0.38356631     0.18730
H733        H  0.36282403  0.64890866  0.32622923     0.18740
F734        F  0.36311260  0.64580049  0.39441958    -0.19020
C735        C  0.41994937  0.73894194  0.44932095    -0.20450
C736        C  0.43091260  0.72523101  0.47504574    -0.08490
C737        C  0.41031391  0.69337105  0.48579304     0.30360
C738        C  0.37874228  0.67549846  0.47129445    -0.20450
C739        C  0.36591111  0.68994914  0.44797263    -0.08510
C740        C  0.38781848  0.72175584  0.43605629     0.30370
F741        F  0.37777123  0.73672624  0.41248617    -0.19030
H742        H  0.43610019  0.76333778  0.44010048     0.18730
H743        H  0.36496037  0.65032544  0.97868244     0.18740
F744        F  0.42119651  0.67900957  0.00923761    -0.19020
C745        C  0.11987432  0.69295863  0.45497474    -0.20450
C746        C  0.13649942  0.69302967  0.48607090    -0.08490
C747        C  0.12389198  0.66390112  0.00527953     0.30360
C748        C  0.09698303  0.63497360  0.99165919    -0.20450
C749        C  0.08369254  0.63340871  0.45720807    -0.08510
C750        C  0.09342518  0.66413471  0.44126160     0.30370
F751        F  0.07707991  0.66719826  0.41285999    -0.19030
H752        H  0.12765335  0.71530981  0.44070772     0.18730
H753        H  0.08712192  0.61338949  0.00769562     0.18740
F754        F  0.13788198  0.66305155  0.03687328    -0.19020
C755        C  0.26133977  0.69276141  0.45387710    -0.20450
C756        C  0.27785841  0.72075727  0.47554934    -0.08490
C757        C  0.31066938  0.73270282  0.48550916     0.30360
C758        C  0.32719125  0.71733482  0.47294350    -0.20450
C759        C  0.31160117  0.68993319  0.44936795    -0.08510
C760        C  0.27763216  0.67687975  0.44173420     0.30370
F761        F  0.26039485  0.64923402  0.42143964    -0.19030
H762        H  0.23568356  0.68293621  0.44677197     0.18730
H763        H  0.35208204  0.72714593  0.48263413     0.18740
F764        F  0.32706942  0.75977544  0.00687750    -0.19020
C765        C  0.48604379  0.35375850  0.22923503    -0.20450
C766        C  0.45620451  0.32428818  0.22701805    -0.08490
C767        C  0.42846479  0.32477667  0.21379657     0.30360
C768        C  0.43110112  0.35422301  0.20243660    -0.20450
C769        C  0.46171988  0.38370156  0.20167317    -0.08510
C770        C  0.48889452  0.38292632  0.21763574     0.30370
F771        F  0.51807464  0.41008097  0.22478932    -0.19030
H772        H  0.50772676  0.35447161  0.24052352     0.18730
H773        H  0.40898377  0.35395361  0.19345786     0.18740
F774        F  0.39875089  0.29718615  0.21275176    -0.19020
C775        C  0.57550805  0.31801711  0.20231944    -0.20450
C776        C  0.56468083  0.29159657  0.22496313    -0.08490
C777        C  0.58623945  0.28111049  0.23619127     0.30360
C778        C  0.61853168  0.29725676  0.22550878    -0.20450
C779        C  0.63105946  0.32569504  0.20476471    -0.08510
C780        C  0.60817547  0.33494306  0.19232107     0.30370
F781        F  0.61755598  0.36059940  0.17041897    -0.19030
H782        H  0.55882958  0.32604577  0.19301969     0.18730
H783        H  0.63296406  0.28645722  0.23363235     0.18740
F784        F  0.57577722  0.25443920  0.25672301    -0.19020
C785        C  0.43932924  0.35872392  0.48968463    -0.20450
C786        C  0.46205462  0.37901787  0.51715215    -0.08490
C787        C  0.47747980  0.36454449  0.03674958     0.30360
C788        C  0.47262359  0.33356709  0.02711270    -0.20450
C789        C  0.45158911  0.31524998  0.49841797    -0.08510
C790        C  0.43468484  0.32809610  0.48018992     0.30370
F791        F  0.41311146  0.31090231  0.45313878    -0.19030
H792        H  0.42344023  0.36516342  0.47539007     0.18730
H793        H  0.48544762  0.32386954  0.04235118     0.18740
F794        F  0.49453403  0.37851242  0.06763596    -0.19020
C795        C  0.58764623  0.28639786  0.47513271    -0.20450
C796        C  0.56445785  0.29406656  0.48755522    -0.08490
C797        C  0.57327315  0.31862352  0.01365664     0.30360
C798        C  0.60495941  0.33484401  0.02776803    -0.20450
C799        C  0.62851787  0.32650331  0.01692616    -0.08510
C800        C  0.61946081  0.30237643  0.48934742     0.30370
F801        F  0.64094674  0.29473907  0.47458329    -0.19030
H802        H  0.58097470  0.26762425  0.45461284     0.18730
H803        H  0.61121719  0.35393997  0.04775594     0.18740
F804        F  0.55139167  0.32731656  0.02509000    -0.19020
C805        C  0.53634074  0.04606450  0.04570136    -0.20450
C806        C  0.56581312  0.07259546  0.53414622    -0.08490
C807        C  0.56447079  0.10185897  0.52864446     0.30360
C808        C  0.53436181  0.10179269  0.52839769    -0.20450
C809        C  0.50453945  0.07301306  0.53425757    -0.08510
C810        C  0.50683330  0.04589506  0.04555637     0.30370
F811        F  0.47984405  0.01804294  0.05531112    -0.19030
H812        H  0.53527467  0.02485577  0.05627939     0.18730
H813        H  0.53478168  0.12455702  0.52420054     0.18740
F814        F  0.59193846  0.13132161  0.52622126    -0.19020
C815        C  0.43897591  0.10063225  0.52303737    -0.20450
C816        C  0.46518455  0.09591860  0.51214769    -0.08490
C817        C  0.48313433  0.11401746  0.48272134     0.30360
C818        C  0.47827303  0.13862091  0.46897542    -0.20450
C819        C  0.45466288  0.14537724  0.48285193    -0.08510
C820        C  0.43421511  0.12534022  0.50927364     0.30370
F821        F  0.41016863  0.13001890  0.52253133    -0.19030
H822        H  0.42209125  0.08542116  0.54293564     0.18730
H823        H  0.49367731  0.15291005  0.44755077     0.18740
F824        F  0.50557350  0.10859839  0.46674304    -0.19020
C825        C  0.44602390  0.93069460  0.40758358    -0.20450
C826        C  0.43485744  0.94110252  0.43697058    -0.08490
C827        C  0.45274038  0.94653875  0.46949701     0.30360
C828        C  0.48350523  0.94864773  0.47043987    -0.20450
C829        C  0.49757701  0.94359281  0.43957909    -0.08510
C830        C  0.47577320  0.93049093  0.40926900     0.30370
F831        F  0.48299567  0.91747152  0.38071422    -0.19030
H832        H  0.43195742  0.92265048  0.38279578     0.18730
H833        H  0.49552169  0.95465514  0.49607217     0.18740
F834        F  0.44142625  0.95205828  0.50041466    -0.19020
C835        C  0.37443014  0.89404401  0.46717421    -0.20450
C836        C  0.37403675  0.92037983  0.45032116    -0.08490
C837        C  0.34284999  0.91819738  0.44589211     0.30360
C838        C  0.31404050  0.89114093  0.45792803    -0.20450
C839        C  0.31519709  0.86517635  0.47418208    -0.08510
C840        C  0.34597289  0.86728595  0.47884593     0.30370
F841        F  0.34898554  0.84311870  0.49446702    -0.19030
H842        H  0.39658855  0.89297352  0.47108732     0.18730
H843        H  0.29077381  0.89019300  0.45374451     0.18740
F844        F  0.34013661  0.94187408  0.42869111    -0.19020
C845        C  0.45069446  0.00656505  0.45126141    -0.20450
C846        C  0.41778239  0.98211355  0.45524097    -0.08490
C847        C  0.40065322  0.98862917  0.98247571     0.30360
C848        C  0.41635447  0.01734662  0.00394809    -0.20450
C849        C  0.45034975  0.03857615  0.50292817    -0.08510
C850        C  0.46657552  0.03348564  0.47402166     0.30370
F851        F  0.49881388  0.05340338  0.46793619    -0.19030
H852        H  0.46600826  0.00343287  0.43219884     0.18730
H853        H  0.40175388  0.02223083  0.02230648     0.18740
F854        F  0.36924527  0.96765819  0.99035844    -0.19020
C855        C  0.36557070  0.88434637  0.27346359    -0.20450
C856        C  0.37383143  0.91520700  0.25972431    -0.08490
C857        C  0.34957961  0.91618266  0.23706133     0.30360
C858        C  0.31994110  0.88797230  0.22845028    -0.20450
C859        C  0.31232561  0.85798991  0.24274704    -0.08510
C860        C  0.33552472  0.85641166  0.26543085     0.30370
F861        F  0.32936192  0.82784432  0.28002638    -0.19030
H862        H  0.38174009  0.88228201  0.29280110     0.18730
H863        H  0.30249045  0.88980668  0.21084110     0.18740
F864        F  0.35282349  0.94422564  0.22406319    -0.19020
C865        C  0.37344495  0.92796995  0.33475991    -0.20450
C866        C  0.39929090  0.95267141  0.31540189    -0.08490
C867        C  0.42127836  0.98046543  0.33660325     0.30360
C868        C  0.42039896  0.98029359  0.37401284    -0.20450
C869        C  0.39942006  0.95204333  0.39306626    -0.08510
C870        C  0.37546733  0.92561597  0.37168930     0.30370
F871        F  0.35498740  0.89595137  0.38507692    -0.19030
H872        H  0.35188280  0.90841687  0.32201640     0.18730
H873        H  0.43724660  0.00291393  0.38714448     0.18740
F874        F  0.44267131  0.00918254  0.32216624    -0.19020
C875        C  0.47328861  0.92077509  0.26488035    -0.20450
C876        C  0.50192930  0.94975070  0.27640928    -0.08490
C877        C  0.49796490  0.97752899  0.27940150     0.30360
C878        C  0.46742289  0.97484968  0.28013299    -0.20450
C879        C  0.43796907  0.94522810  0.27424753    -0.08510
C880        C  0.44227305  0.91875640  0.26251138     0.30370
F881        F  0.41849097  0.89243295  0.24441984    -0.19030
H882        H  0.47453252  0.90000259  0.25480386     0.18730
H883        H  0.46774515  0.99768503  0.28056345     0.18740
F884        F  0.52354548  0.00846608  0.27783876    -0.19020
C885        C  0.43001280  0.12276078  0.21272434    -0.20450
C886        C  0.45812101  0.14986342  0.22734981    -0.08490
C887        C  0.48734838  0.14848662  0.22963527     0.30360
C888        C  0.48843880  0.12098948  0.21742664    -0.20450
C889        C  0.46030101  0.09324220  0.20319034    -0.08510
C890        C  0.43098173  0.09491667  0.20081036     0.30370
F891        F  0.40322166  0.06961228  0.18618817    -0.19030
H892        H  0.40725303  0.12313554  0.21034860     0.18730
H893        H  0.51210114  0.12262763  0.21794450     0.18740
F894        F  0.51565691  0.17441999  0.24234599    -0.19020
C895        C  0.43554057  0.03740629  0.08623770    -0.20450
C896        C  0.45887223  0.06595871  0.06919296    -0.08490
C897        C  0.47588878  0.09457843  0.09093967     0.30360
C898        C  0.47289265  0.09373201  0.12771643    -0.20450
C899        C  0.45286825  0.06443597  0.14535385    -0.08510
C900        C  0.43122619  0.03714230  0.12348025     0.30370
F901        F  0.40669532  0.00977452  0.13750280    -0.19030
H902        H  0.42172481  0.01450933  0.07185006     0.18730
H903        H  0.48934240  0.11576854  0.14277998     0.18740
F904        F  0.49789368  0.12345067  0.07688950    -0.19020
C905        C  0.42226109  0.03005715  0.23661136    -0.20450
C906        C  0.43894942  0.03116580  0.20495272    -0.08490
C907        C  0.43837450  0.00201081  0.19439904     0.30360
C908        C  0.42417261  0.97459471  0.21550174    -0.20450
C909        C  0.41178860  0.97521172  0.24935778    -0.08510
C910        C  0.40815119  0.00234980  0.25791176     0.30370
F911        F  0.39098307  0.00242210  0.28657999    -0.19030
H912        H  0.42111804  0.05096525  0.24652773     0.18730
H913        H  0.42538827  0.95333195  0.20661331     0.18740
F914        F  0.45344345  0.00029930  0.16458083    -0.19020
C915        C  0.51049813  0.06172523  0.15719489    -0.20450
C916        C  0.49672856  0.06691607  0.18801961    -0.08490
C917        C  0.51345732  0.06921531  0.22077004     0.30360
C918        C  0.54403353  0.07013538  0.22142711    -0.20450
C919        C  0.55898926  0.06818490  0.18966979    -0.08510
C920        C  0.53935943  0.06082835  0.15800396     0.30370
F921        F  0.54543537  0.04916492  0.12758558    -0.19030
H922        H  0.49775652  0.05509022  0.13165716     0.18730
H923        H  0.55616381  0.07239983  0.24694435     0.18740
F924        F  0.50013894  0.07027403  0.25223944    -0.19020
C925        C  0.46165345  0.06367215  0.68575771    -0.01630
C926        C  0.40504822  0.94683198  0.77478969    -0.01630
C927        C  0.40574288  0.94870949  0.93397806    -0.01630
C928        C  0.46939835  0.06837085  0.52932154    -0.01630
O929        O  0.48412277  0.25784787  0.89513531    -0.56960
C930        C  0.53065371  0.27531436  0.97471300     0.75670
O931        O  0.46329454  0.27151251  0.00296298    -0.58120
C932        C  0.45772062  0.24022946  0.87760610     0.75640
C933        C  0.45430817  0.17506283  0.97141832     0.78030
Cd934      Cd  0.46461032  0.23813833  0.95277281     1.37470
O935        O  0.52323574  0.26525374  0.94260202    -0.56960
O936        O  0.47678630  0.19493612  0.95207418    -0.55770
C937        C  0.45013137  0.28474710  0.98538405     0.77990
O938        O  0.43344027  0.18307170  0.98119797    -0.58140
O939        O  0.50753117  0.26810187  0.99579787    -0.56590
O940        O  0.43241831  0.22195860  0.89517206    -0.56580
O941        O  0.43812511  0.27201313  0.95490012    -0.55750
O942        O  0.52513789  0.26605391  0.76940416    -0.56960
C943        C  0.45819321  0.24071502  0.83865794     0.75670
O944        O  0.43498489  0.26535213  0.72983586    -0.58120
C945        C  0.53111679  0.27513178  0.73745119     0.75640
C946        C  0.45798366  0.17995078  0.73969406     0.78030
Cd947      Cd  0.46681752  0.24274796  0.76327913     1.37470
O948        O  0.48521234  0.25737581  0.82373607    -0.56960
O949        O  0.48119309  0.20067210  0.75937577    -0.55770
C950        C  0.45567384  0.29446103  0.74004675     0.77990
O951        O  0.43595748  0.18702564  0.73111980    -0.58140
O952        O  0.43310356  0.22438284  0.81847916    -0.56590
O953        O  0.50700913  0.26922501  0.71699267    -0.56580
O954        O  0.47794400  0.29762990  0.76163372    -0.55750
O955        O  0.26632267  0.74943401  0.51956722    -0.56960
C956        C  0.23560998  0.78099107  0.58785772     0.75670
O957        O  0.25650558  0.83172465  0.98664889    -0.58120
C958        C  0.26105261  0.73755688  0.98817266     0.75640
C959        C  0.16794099  0.72258409  0.49658916     0.78030
Cd960      Cd  0.23357045  0.77442605  0.51296383     1.37470
O961        O  0.25086697  0.77001231  0.57050240    -0.56960
O962        O  0.18532098  0.72188239  0.52212121    -0.55770
C963        C  0.28522731  0.83533219  0.48583773     0.77990
O964        O  0.17984593  0.74908495  0.97952538    -0.58140
O965        O  0.21979311  0.79169199  0.57029530    -0.56590
O966        O  0.24165849  0.74176386  0.96800804    -0.56580
O967        O  0.28773634  0.81147988  0.49617203    -0.55750
C968        C  0.32949705  0.67230920  0.93492658    -0.01630
O969        O  0.51161087  0.77695954  0.57006930    -0.56960
C970        C  0.46467853  0.74319009  0.98834458     0.75670
O971        O  0.56411243  0.83664659  0.00381200    -0.58120
C972        C  0.53808193  0.78496721  0.58700883     0.75640
C973        C  0.53978427  0.72114455  0.48940304     0.78030
Cd974      Cd  0.53069805  0.77506426  0.51125972     1.37470
O975        O  0.47219050  0.74330921  0.52103462    -0.56960
O976        O  0.51725263  0.71896481  0.50875771    -0.55770
C977        C  0.54374666  0.83624447  0.48089452     0.77990
O978        O  0.56140614  0.74993124  0.98123535    -0.58140
O979        O  0.48769640  0.75874776  0.96711849    -0.56590
O980        O  0.56270469  0.79051455  0.56874200    -0.56580
O981        O  0.52230883  0.80853016  0.46916924    -0.55750
O982        O  0.47497558  0.74751285  0.69071738    -0.56960
C983        C  0.53872930  0.78545500  0.62604311     0.75670
O984        O  0.51879858  0.80968099  0.73868132    -0.58120
C985        C  0.46925347  0.74074474  0.72339418     0.75640
C986        C  0.54613751  0.72542157  0.72128143     0.78030
Cd987      Cd  0.53366112  0.77709476  0.70143660     1.37460
O988        O  0.51260194  0.77701687  0.64252540    -0.56960
O989        O  0.52726086  0.72344826  0.69598977    -0.55770
C990        C  0.54408832  0.83704071  0.73580035     0.77990
O991        O  0.56349862  0.75361225  0.73581933    -0.58140
O992        O  0.56419267  0.79235695  0.64471030    -0.56590
O993        O  0.49356338  0.75058442  0.74480227    -0.56580
O994        O  0.56738824  0.83719219  0.71886416    -0.55750
C995        C  0.33711181  0.67210861  0.77680722    -0.01630
O996        O  0.26064826  0.73425842  0.68393303    -0.56960
C997        C  0.23571671  0.77901743  0.62643045     0.75670
O998        O  0.18373636  0.74416093  0.73413514    -0.58120
C999        C  0.27414649  0.73855060  0.71452962     0.75640
C1000       C  0.28185762  0.82804055  0.73120073     0.78030
Cd1001     Cd  0.23483611  0.76652696  0.69955236     1.37470
O1002       O  0.25261170  0.76814462  0.64104204    -0.56960
O1003       O  0.26529277  0.82695748  0.70366733    -0.55770
C1004       C  0.17178953  0.71538966  0.72112623     0.77990
O1005       O  0.27229593  0.80148118  0.74695536    -0.58140
O1006       O  0.21832893  0.78594432  0.64629350    -0.56590
O1007       O  0.26922187  0.75554999  0.73716109    -0.56580
O1008       O  0.18758933  0.71159017  0.69655638    -0.55750
C1009       C  0.59786570  0.06935429  0.53486166    -0.01630
C1010       C  0.53459882  0.95119847  0.93857810    -0.01630
C1011       C  0.53735452  0.95385317  0.78089858    -0.01630
C1012       C  0.59264853  0.06842021  0.69021401    -0.01630
C1013       C  0.93473860  0.41406910  0.69083603    -0.01630
C1014       C  0.05580351  0.46669598  0.78380379    -0.01630
C1015       C  0.06285248  0.47483792  0.94252518    -0.01600
C1016       C  0.94656530  0.41468479  0.53190324    -0.01630
O1017       O  0.72951855  0.48291401  0.94580353    -0.56960
C1018       C  0.77080435  0.55047114  0.87992126     0.75670
O1019       O  0.74102356  0.56970794  0.99097772    -0.58120
C1020       C  0.72241547  0.47769471  0.97840332     0.75640
C1021       C  0.82479115  0.54740418  0.98108301     0.78030
Cd1022     Cd  0.76400516  0.54122084  0.95420345     1.37470
O1023       O  0.75883963  0.52310602  0.89449158    -0.56960
O1024       O  0.82157408  0.57263864  0.98158260    -0.55770
C1025       C  0.71377192  0.55480561  0.97365192     0.77990
O1026       O  0.80076082  0.52151439  0.96849365    -0.58140
O1027       O  0.78167698  0.57563715  0.90018686    -0.56590
O1028       O  0.73514197  0.50219908  0.99970991    -0.56580
O1029       O  0.71293009  0.53906173  0.94586966    -0.55750
C1030       C  0.66336572  0.34693225  0.53316878    -0.01630
O1031       O  0.74235823  0.28531556  0.95335460    -0.56960
C1032       C  0.76614893  0.24145919  0.88195577     0.75670
O1033       O  0.81742749  0.26917959  0.98997095    -0.58120
C1034       C  0.73692686  0.28478337  0.98630508     0.75640
C1035       C  0.71332306  0.18431653  0.97722565     0.78030
Cd1036     Cd  0.76410261  0.24847439  0.95639010     1.37460
O1037       O  0.75250705  0.25556039  0.89686662    -0.56960
O1038       O  0.70877102  0.20144414  0.95474658    -0.55770
C1039       C  0.83129686  0.29623460  0.97400284     0.77990
O1040       O  0.74259774  0.19590348  0.98916680    -0.58140
O1041       O  0.77838904  0.22851419  0.90183534    -0.56590
O1042       O  0.74440523  0.26760935  0.00560944    -0.56580
O1043       O  0.81487582  0.29940622  0.94911967    -0.55750
O1044       O  0.75974144  0.52468544  0.82389410    -0.56960
C1045       C  0.73914006  0.47802124  0.74985293     0.75670
O1046       O  0.74202074  0.57774152  0.74934822    -0.58120
C1047       C  0.77114611  0.55131926  0.84117977     0.75640
C1048       C  0.83490488  0.56158338  0.74615823     0.78030
Cd1049     Cd  0.76983038  0.54519920  0.76592866     1.37470
O1050       O  0.73042681  0.48889630  0.77596536    -0.56960
O1051       O  0.82202557  0.54896044  0.77519218    -0.55770
C1052       C  0.71758104  0.55273263  0.73496911     0.77990
O1053       O  0.81921210  0.57130333  0.72668454    -0.58140
O1054       O  0.76308847  0.49833819  0.73201969    -0.56590
O1055       O  0.78203820  0.57722250  0.82344892    -0.56580
O1056       O  0.72031394  0.52771663  0.73131829    -0.55750
C1057       C  0.66747957  0.34439657  0.69251702    -0.01630
O1058       O  0.75827865  0.25827520  0.82615627    -0.56960
C1059       C  0.73787853  0.27976559  0.74276632     0.75670
O1060       O  0.80541235  0.26734691  0.72090960    -0.58120
C1061       C  0.76753190  0.24131790  0.84329317     0.75640
C1062       C  0.71166082  0.18163831  0.74875330     0.78030
Cd1063     Cd  0.76590169  0.24346327  0.76858555     1.37460
O1064       O  0.74547741  0.28097898  0.77553435    -0.56960
O1065       O  0.70958857  0.20448267  0.76380138    -0.55770
C1066       C  0.82847492  0.28764506  0.74131663     0.77990
O1067       O  0.74042791  0.18624776  0.74418716    -0.58140
O1068       O  0.74489929  0.26288251  0.72218212    -0.56590
O1069       O  0.77760817  0.22502764  0.82560233    -0.56580
O1070       O  0.82477613  0.28296010  0.77443838    -0.55750
C1071       C  0.05575427  0.60040824  0.94010744    -0.01630
C1072       C  0.94119971  0.54120249  0.53262501    -0.01630
C1073       C  0.94149874  0.54336081  0.69169763    -0.01630
C1074       C  0.06325862  0.59882837  0.78396756    -0.01630
C1075       C  0.46486436  0.41263000  0.52905021    -0.01630
C1076       C  0.59194313  0.54138824  0.52935212    -0.01630
C1077       C  0.40978485  0.47390056  0.93803245    -0.01630
C1078       C  0.53740199  0.60208474  0.93645321    -0.01630
C1079       C  0.46302617  0.41549924  0.68763015    -0.01630
C1080       C  0.59210010  0.54173149  0.68959266    -0.01630
C1081       C  0.40774558  0.47679276  0.78035605    -0.01630
C1082       C  0.53770277  0.60503232  0.77790555    -0.01630
O1083       O  0.24290485  0.49542279  0.65117944    -0.56960
C1084       C  0.26196721  0.53595802  0.73144635     0.75670
O1085       O  0.17521005  0.43772674  0.73833848    -0.58120
C1086       C  0.23271785  0.46959344  0.63250025     0.75640
C1087       C  0.27679309  0.45771956  0.74087890     0.78030
Cd1088     Cd  0.22847584  0.47030757  0.70772610     1.37460
O1089       O  0.27138453  0.52626455  0.70490454    -0.56960
O1090       O  0.26743052  0.47612754  0.75455063    -0.55770
C1091       C  0.16130492  0.45146956  0.72259346     0.77990
O1092       O  0.25923821  0.43933835  0.71504355    -0.58140
O1093       O  0.23594838  0.51532805  0.74609630    -0.56590
O1094       O  0.22053377  0.44279619  0.64871555    -0.56580
O1095       O  0.17719429  0.47057870  0.69813461    -0.55750
O1096       O  0.24625130  0.49911922  0.57946038    -0.56960
C1097       C  0.26516162  0.54336248  0.99613611     0.75670
O1098       O  0.26467142  0.44925938  0.98907749    -0.58120
C1099       C  0.23498758  0.47162073  0.59385874     0.75640
C1100       C  0.17730768  0.46377176  0.49003407     0.78030
Cd1101     Cd  0.24030079  0.47951157  0.51939225     1.37460
O1102       O  0.26118061  0.53804214  0.52930406    -0.56960
O1103       O  0.17872506  0.45029490  0.51845588    -0.55770
C1104       C  0.29383856  0.47189506  0.49645702     0.77990
O1105       O  0.20332311  0.47820831  0.97286990    -0.58140
O1106       O  0.25766120  0.51918781  0.97549614    -0.56590
O1107       O  0.22582594  0.44672575  0.57350894    -0.56580
O1108       O  0.29688660  0.49489456  0.51649576    -0.55750
C1109       C  0.33336354  0.49146968  0.76552092    -0.20450
C1110       C  0.30868523  0.46100458  0.75238621    -0.08490
C1111       C  0.31619173  0.43604579  0.74805232     0.30360
C1112       C  0.34769385  0.44166779  0.75711283    -0.20450
C1113       C  0.37393431  0.47315078  0.76772171    -0.08510
C1114       C  0.36515891  0.49764878  0.77301224     0.30370
F1115       F  0.38668455  0.52813237  0.78501365    -0.19030
H1116       H  0.32832660  0.51132907  0.76909148     0.18730
H1117       H  0.35131633  0.42081901  0.75578019     0.18740
F1118       F  0.29295107  0.40598889  0.73594875    -0.19020
C1119       C  0.46893867  0.51451679  0.79270960    -0.20450
C1120       C  0.44046096  0.51002195  0.77473902    -0.08490
C1121       C  0.44440625  0.53655580  0.75430369     0.30360
C1122       C  0.47385545  0.56713951  0.75672562    -0.20450
C1123       C  0.50318555  0.57152230  0.77392683    -0.08510
C1124       C  0.49895906  0.54346058  0.79202435     0.30370
F1125       F  0.52264446  0.54425399  0.81335007    -0.19030
H1126       H  0.46786705  0.49573945  0.80953609     0.18730
H1127       H  0.47159754  0.58694161  0.74648384     0.18740
F1128       F  0.42023667  0.53352149  0.73171584    -0.19020
C1129       C  0.58580400  0.59301576  0.70019561    -0.20450
C1130       C  0.58975987  0.56766760  0.71353776    -0.08490
C1131       C  0.58869319  0.56446143  0.75108565     0.30360
C1132       C  0.57622226  0.57999524  0.77234788    -0.20450
C1133       C  0.56421031  0.59959069  0.75782719    -0.08510
C1134       C  0.57330840  0.60872140  0.72159893     0.30370
F1135       F  0.57112921  0.63304775  0.70572364    -0.19030
H1136       H  0.59081116  0.59995405  0.67269533     0.18730
H1137       H  0.57462193  0.57436439  0.80006887     0.18740
F1138       F  0.59523523  0.54263719  0.76698427    -0.19020
C1139       C  0.44225468  0.42064949  0.74871961    -0.20450
C1140       C  0.43865759  0.42075129  0.71112329    -0.08490
C1141       C  0.41859505  0.43291825  0.69810326     0.30360
C1142       C  0.40836394  0.44957250  0.72102480    -0.20450
C1143       C  0.41410114  0.45193271  0.75848040    -0.08510
C1144       C  0.43098219  0.43625920  0.77186045     0.30370
F1145       F  0.44035347  0.43866509  0.80660320    -0.19030
H1146       H  0.45753578  0.41187074  0.76031951     0.18730
H1147       H  0.39647648  0.46172693  0.70884312     0.18740
F1148       F  0.40977707  0.43051655  0.66317426    -0.19020
C1149       C  0.50292919  0.47447870  0.71149964    -0.20450
C1150       C  0.49819383  0.44657202  0.69224322    -0.08490
C1151       C  0.52526303  0.45034674  0.67235304     0.30360
C1152       C  0.55535738  0.48002257  0.67333484    -0.20450
C1153       C  0.55972137  0.50786357  0.69289026    -0.08510
C1154       C  0.53153220  0.50420681  0.71040977     0.30370
F1155       F  0.52862023  0.52952618  0.72313533    -0.19030
H1156       H  0.48341700  0.47550731  0.72487352     0.18730
H1157       H  0.57519523  0.48159859  0.65767758     0.18740
F1158       F  0.52237342  0.42542152  0.65127996    -0.19020
C1159       C  0.51881140  0.61241793  0.87644202    -0.20450
C1160       C  0.54391706  0.61102874  0.89617536    -0.08490
C1161       C  0.57180519  0.61648416  0.87708737     0.30360
C1162       C  0.57129873  0.61678475  0.83939172    -0.20450
C1163       C  0.54296111  0.61118625  0.81952579    -0.08510
C1164       C  0.51811720  0.61222800  0.83922187     0.30370
F1165       F  0.49197141  0.61140645  0.82238274    -0.19030
H1166       H  0.49786684  0.61068952  0.88995607     0.18730
H1167       H  0.59351120  0.62208500  0.82606601     0.18740
F1168       F  0.59961590  0.62178989  0.89433666    -0.19020
C1169       C  0.32132703  0.44452975  0.46716241    -0.20450
C1170       C  0.32324872  0.47269983  0.48190960    -0.08490
C1171       C  0.35335427  0.50226238  0.98124334     0.30360
C1172       C  0.38105011  0.50325334  0.96686549    -0.20450
C1173       C  0.37991425  0.47464147  0.95388662    -0.08510
C1174       C  0.34901688  0.44538550  0.45318191     0.30370
F1175       F  0.34573500  0.41712957  0.43961558    -0.19030
H1176       H  0.29836965  0.42166074  0.46666148     0.18730
H1177       H  0.40287986  0.52676426  0.96517346     0.18740
F1178       F  0.35591007  0.53064924  0.99338638    -0.19020
C1179       C  0.40157484  0.49453173  0.87980544    -0.20450
C1180       C  0.39983832  0.46771067  0.89748896    -0.08490
C1181       C  0.39232622  0.43983508  0.87609671     0.30360
C1182       C  0.39171962  0.44152834  0.83837170    -0.20450
C1183       C  0.40331380  0.47190798  0.82152666    -0.08510
C1184       C  0.40755765  0.49830000  0.84376357     0.30370
F1185       F  0.42118548  0.52926852  0.83231195    -0.19030
H1186       H  0.40529174  0.51582402  0.89501788     0.18730
H1187       H  0.38397009  0.41945774  0.82258603     0.18740
F1188       F  0.38529732  0.41119779  0.89105256    -0.19020
C1189       C  0.46523915  0.51535563  0.91217328    -0.20450
C1190       C  0.44400823  0.50662604  0.94117215    -0.08490
C1191       C  0.45724665  0.52690167  0.97219314     0.30360
C1192       C  0.48678982  0.55741576  0.97081498    -0.20450
C1193       C  0.50419148  0.56866369  0.93865949    -0.08510
C1194       C  0.49347437  0.54518610  0.91028550     0.30370
F1195       F  0.51049887  0.54961583  0.88018266    -0.19030
H1196       H  0.45981737  0.49920274  0.88926259     0.18730
H1197       H  0.49600571  0.57239130  0.49493648     0.18740
F1198       F  0.44190089  0.51743498  0.50372486    -0.19020
C1199       C  0.57106020  0.55008018  0.59013762    -0.20450
C1200       C  0.59558592  0.54788431  0.57084130    -0.08490
C1201       C  0.61896492  0.54430921  0.59175453     0.30360
C1202       C  0.61919646  0.54558867  0.62882465    -0.20450
C1203       C  0.59509518  0.54817670  0.64835847    -0.08510
C1204       C  0.57033978  0.54957193  0.62776547     0.30370
F1205       F  0.54401861  0.54814894  0.64374843    -0.19030
H1206       H  0.55114190  0.55054530  0.57602263     0.18730
H1207       H  0.63718652  0.54107206  0.64162668     0.18740
F1208       F  0.63994121  0.53571427  0.57742803    -0.19020
C1209       C  0.58100392  0.55662288  0.96833380    -0.20450
C1210       C  0.58699338  0.56518263  0.00508144    -0.08490
C1211       C  0.58531381  0.59281666  0.01650173     0.30360
C1212       C  0.57222923  0.60693931  0.99339436    -0.20450
C1213       C  0.56233073  0.59547700  0.95747691    -0.08510
C1214       C  0.56919518  0.57125832  0.94514304     0.30370
F1215       F  0.56193872  0.55921732  0.91124421    -0.19030
H1216       H  0.58279966  0.53617815  0.95779400     0.18730
H1217       H  0.56792439  0.62545282  0.50501430     0.18740
F1218       F  0.59456750  0.60543918  0.55008835    -0.19020
C1219       C  0.44097802  0.38312968  0.62614465    -0.20450
C1220       C  0.45463109  0.41272004  0.64638749    -0.08490
C1221       C  0.46345471  0.44115970  0.62648238     0.30360
C1222       C  0.46419358  0.44051750  0.58925588    -0.20450
C1223       C  0.45552195  0.41157926  0.56939937    -0.08510
C1224       C  0.43932479  0.38242934  0.58875683     0.30370
F1225       F  0.42191491  0.35284550  0.57199652    -0.19030
H1226       H  0.43150565  0.35979792  0.63812036     0.18730
H1227       H  0.47231220  0.46343088  0.57659894     0.18740
F1228       F  0.47296315  0.47039482  0.64292735    -0.19020
C1229       C  0.40370530  0.43820498  0.49243039    -0.20450
C1230       C  0.41558483  0.44834528  0.95757288    -0.08490
C1231       C  0.43846437  0.43985660  0.94498207     0.30360
C1232       C  0.45123792  0.42545047  0.96741417    -0.20450
C1233       C  0.44190393  0.41860680  0.00344863    -0.08510
C1234       C  0.41571012  0.42271086  0.51451607     0.30370
F1235       F  0.40288599  0.41411046  0.54734201    -0.19030
H1236       H  0.38658226  0.44414976  0.50442710     0.18730
H1237       H  0.47078417  0.42193414  0.95749287     0.18740
F1238       F  0.45082366  0.44779448  0.91192031    -0.19020
C1239       C  0.50096775  0.47435582  0.51962436    -0.20450
C1240       C  0.50004261  0.44422247  0.02502724    -0.08490
C1241       C  0.53128459  0.44679997  0.03019539     0.30360
C1242       C  0.56030724  0.47759568  0.03238359    -0.20450
C1243       C  0.56041316  0.50692177  0.02499672    -0.08510
C1244       C  0.52938114  0.50414856  0.51940106     0.30370
F1245       F  0.52517263  0.53039844  0.51641770    -0.19030
H1246       H  0.47887285  0.47588577  0.51726243     0.18730
H1247       H  0.58305269  0.47831030  0.03933143     0.18740
F1248       F  0.53515578  0.42046349  0.03181166    -0.19020
C1249       C  0.99628517  0.59434894  0.71528940    -0.20450
C1250       C  0.97234187  0.56111917  0.71732662    -0.08490
C1251       C  0.97580875  0.54440367  0.74684804     0.30360
C1252       C  0.00276524  0.55868793  0.76961040    -0.20450
C1253       C  0.03007578  0.58909033  0.76338850    -0.08510
C1254       C  0.02507753  0.60809631  0.73728790     0.30370
F1255       F  0.04688332  0.64022397  0.73364312    -0.19030
H1256       H  0.99307332  0.60969307  0.69641281     0.18730
H1257       H  0.00178465  0.54406182  0.79140778     0.18740
F1258       F  0.95415642  0.51290871  0.75380552    -0.19020
C1259       C  0.97326485  0.57099251  0.63274581    -0.20450
C1260       C  0.94408045  0.55221080  0.65125036    -0.08490
C1261       C  0.91504745  0.53547100  0.63022213     0.30360
C1262       C  0.91539130  0.53547227  0.59335243    -0.20450
C1263       C  0.94432788  0.55160247  0.57370184    -0.08510
C1264       C  0.97372399  0.57046092  0.59496060     0.30370
F1265       F  0.00389609  0.58449831  0.58085351    -0.19030
H1266       H  0.99657551  0.58332885  0.64690520     0.18730
H1267       H  0.89193334  0.52032375  0.58083566     0.18740
F1268       F  0.88572711  0.51626378  0.64544557    -0.19020
C1269       C  0.08600963  0.61063066  0.88289770    -0.20450
C1270       C  0.05724817  0.60581984  0.89927277    -0.08490
C1271       C  0.03359873  0.60800590  0.87741739     0.30360
C1272       C  0.03594886  0.60818053  0.84000156    -0.20450
C1273       C  0.06261250  0.60765731  0.82386176    -0.08510
C1274       C  0.08901370  0.61211294  0.84628664     0.30370
F1275       F  0.11664223  0.61456397  0.83247749    -0.19030
H1276       H  0.10609427  0.61199945  0.89878732     0.18730
H1277       H  0.01649150  0.60781286  0.82393374     0.18740
F1278       F  0.00939156  0.61176173  0.89173958    -0.19020
C1279       C  0.96637517  0.55032969  0.97147045    -0.20450
C1280       C  0.96901023  0.56261675  0.00656722    -0.08490
C1281       C  0.99449706  0.59501705  0.01252344     0.30360
C1282       C  0.02138245  0.60874385  0.98974912    -0.20450
C1283       C  0.02240583  0.59191247  0.95840075    -0.08510
C1284       C  0.99165707  0.56506281  0.94747793     0.30370
F1285       F  0.98400631  0.55413045  0.91321197    -0.19030
H1286       H  0.94407021  0.52914575  0.96196612     0.18730
H1287       H  0.04101275  0.63284361  0.99709714     0.18740
F1288       F  0.99235051  0.61465262  0.03776483    -0.19020
C1289       C  0.69522160  0.30974584  0.68106012    -0.20450
C1290       C  0.68513603  0.32606319  0.70513081    -0.08490
C1291       C  0.69282581  0.32644470  0.74194269     0.30360
C1292       C  0.71047603  0.31190683  0.75369690    -0.20450
C1293       C  0.72071004  0.29629254  0.72945195    -0.08510
C1294       C  0.71281065  0.29513722  0.69300298     0.30370
F1295       F  0.72192002  0.27980526  0.66869766    -0.19030
H1296       H  0.68974941  0.30796130  0.65277137     0.18730
H1297       H  0.71579671  0.31259591  0.78200933     0.18740
F1298       F  0.68288046  0.34070296  0.76669132    -0.19020
C1299       C  0.87416949  0.54133833  0.75305054    -0.20450
C1300       C  0.86503467  0.56159064  0.73518251    -0.08490
C1301       C  0.88302146  0.57854631  0.70576859     0.30360
C1302       C  0.90830359  0.57371246  0.69354609    -0.20450
C1303       C  0.91503552  0.55004080  0.70854536    -0.08510
C1304       C  0.89867328  0.53572541  0.74036004     0.30370
F1305       F  0.90491530  0.51531875  0.75933912    -0.19030
H1306       H  0.86126713  0.52842802  0.77644640     0.18730
H1307       H  0.92204753  0.58825154  0.67142324     0.18740
F1308       F  0.87608659  0.59954569  0.68856833    -0.19020
C1309       C  0.65706378  0.52072165  0.72745957    -0.20450
C1310       C  0.68615664  0.55081801  0.72469099    -0.08490
C1311       C  0.68418673  0.57773502  0.71299585     0.30360
C1312       C  0.65381729  0.57398485  0.70243118    -0.20450
C1313       C  0.62429684  0.54344399  0.70383544    -0.08510
C1314       C  0.62650677  0.51706057  0.71813489     0.30370
F1315       F  0.59970190  0.48799197  0.72457041    -0.19030
H1316       H  0.65788315  0.49983985  0.73780550     0.18730
H1317       H  0.65327315  0.59504543  0.69224749     0.18740
F1318       F  0.71160189  0.60733119  0.71060695    -0.19020
C1319       C  0.73830256  0.42877404  0.72645398    -0.20450
C1320       C  0.72134583  0.44361136  0.73954010    -0.08490
C1321       C  0.68725967  0.42583554  0.74106532     0.30360
C1322       C  0.67015720  0.39420674  0.72690728    -0.20450
C1323       C  0.68645601  0.37946629  0.70997596    -0.08510
C1324       C  0.72140459  0.39683975  0.71329160     0.30370
F1325       F  0.73986947  0.38334229  0.70373838    -0.19030
H1326       H  0.76484541  0.44191155  0.72666487     0.18730
H1327       H  0.64415691  0.38205795  0.73006489     0.18740
F1328       F  0.67024865  0.43946752  0.75494061    -0.19020
C1329       C  0.67864381  0.30245639  0.53492892    -0.20450
C1330       C  0.68615863  0.33345752  0.52212054    -0.08490
C1331       C  0.71446039  0.34988311  0.00110560     0.30360
C1332       C  0.73066435  0.33369409  0.98928541    -0.20450
C1333       C  0.72159166  0.30248630  0.00103296    -0.08510
C1334       C  0.69675880  0.28775102  0.52554021     0.30370
F1335       F  0.68865982  0.25819174  0.53888589    -0.19030
H1336       H  0.65797257  0.28896906  0.55178402     0.18730
H1337       H  0.75099917  0.34593588  0.97151714     0.18740
F1338       F  0.72769694  0.38153869  0.99225114    -0.19020
C1339       C  0.64025253  0.32078754  0.63094481    -0.20450
C1340       C  0.66720785  0.34568954  0.65073664    -0.08490
C1341       C  0.69422706  0.36787190  0.63040825     0.30360
C1342       C  0.69268536  0.36636029  0.59331750    -0.20450
C1343       C  0.66347576  0.34553405  0.57440204    -0.08510
C1344       C  0.63765357  0.32119523  0.59402163     0.30370
F1345       F  0.61091497  0.29574059  0.57803376    -0.19030
H1346       H  0.62062248  0.30020097  0.64388849     0.18730
H1347       H  0.71419980  0.38322748  0.57900609     0.18740
F1348       F  0.72276280  0.39135549  0.64484075    -0.19020
C1349       C  0.85091473  0.51665819  0.50416186    -0.20450
C1350       C  0.85427043  0.54666896  0.99450280    -0.08490
C1351       C  0.88533336  0.57450196  0.99759874     0.30360
C1352       C  0.91245664  0.57186454  0.00903221    -0.20450
C1353       C  0.90984633  0.54142347  0.01747627    -0.08510
C1354       C  0.87759853  0.51397769  0.51640530     0.30370
F1355       F  0.87031887  0.48515214  0.53111532    -0.19030
H1356       H  0.82691370  0.49497039  0.50372166     0.18730
H1357       H  0.93571636  0.59415629  0.01156228     0.18740
F1358       F  0.88967647  0.60421597  0.98923866    -0.19020
C1359       C  0.68340266  0.57770866  0.00670821    -0.20450
C1360       C  0.68319065  0.55281201  0.98598033    -0.08490
C1361       C  0.65303776  0.52445638  0.97787946     0.30360
C1362       C  0.62395862  0.52058604  0.99139005    -0.20450
C1363       C  0.62385520  0.54457564  0.01396524    -0.08510
C1364       C  0.65406031  0.57417986  0.01957736     0.30370
F1365       F  0.65527381  0.59934644  0.03874064    -0.19030
H1366       H  0.70621925  0.59995960  0.01274887     0.18730
H1367       H  0.60157298  0.49902362  0.98287527     0.18740
F1368       F  0.65157264  0.49975363  0.95752414    -0.19020
C1369       C  0.67536771  0.38615588  0.98221537    -0.20450
C1370       C  0.67432917  0.38167610  0.51949889    -0.08490
C1371       C  0.68044273  0.40888867  0.54162117     0.30360
C1372       C  0.69528740  0.44005058  0.52780383    -0.20450
C1373       C  0.70158381  0.44460063  0.99136936    -0.08510
C1374       C  0.68914012  0.41724661  0.96824868     0.30370
F1375       F  0.69155656  0.42045356  0.93234196    -0.19030
H1376       H  0.66771772  0.36560848  0.96386348     0.18730
H1377       H  0.70203198  0.46067787  0.54579893     0.18740
F1378       F  0.67089331  0.40600416  0.57592422    -0.19020
C1379       C  0.92011778  0.48081768  0.00723834    -0.20450
C1380       C  0.94026831  0.50717101  0.03108512    -0.08490
C1381       C  0.96356019  0.50293486  0.55081365     0.30360
C1382       C  0.96325641  0.47351312  0.55086756    -0.20450
C1383       C  0.94281485  0.44640894  0.02823428    -0.08510
C1384       C  0.91964944  0.45062596  0.00733086     0.30370
F1385       F  0.89451676  0.42598447  0.98883486    -0.19030
H1386       H  0.90409688  0.48300522  0.98796545     0.18730
H1387       H  0.97858014  0.47197718  0.57138081     0.18740
F1388       F  0.98820123  0.52728396  0.56999336    -0.19020
C1389       C  0.90789298  0.38007584  0.97866618    -0.20450
C1390       C  0.91836925  0.38193330  0.01452977    -0.08490
C1391       C  0.90468902  0.35148796  0.53241229     0.30360
C1392       C  0.87745715  0.32350767  0.01826567    -0.20450
C1393       C  0.86384766  0.32385800  0.98514360    -0.08510
C1394       C  0.88031491  0.35199772  0.96453724     0.30370
F1395       F  0.86958808  0.35264615  0.93091297    -0.19030
H1396       H  0.92079080  0.40080085  0.96166010     0.18730
H1397       H  0.86657444  0.30163352  0.53385688     0.18740
F1398       F  0.91780996  0.34766062  0.56318948    -0.19020
C1399       C  0.15325160  0.49501360  0.96385372    -0.20450
C1400       C  0.14830322  0.46602786  0.47885642    -0.08490
C1401       C  0.11634556  0.44121871  0.48434562     0.30360
C1402       C  0.08984626  0.44483809  0.47311732    -0.20450
C1403       C  0.09394304  0.47423560  0.95825678    -0.08510
C1404       C  0.12705203  0.49950457  0.95410159     0.30370
F1405       F  0.13523228  0.52789720  0.93774364    -0.19030
H1406       H  0.17792694  0.51472862  0.95965090     0.18730
H1407       H  0.06595561  0.42375950  0.47588298     0.18740
F1408       F  0.11061208  0.41292056  0.49928640    -0.19020
C1409       C  0.08759380  0.53780984  0.96127592    -0.20450
C1410       C  0.06409504  0.50899941  0.94264855    -0.08490
C1411       C  0.03840177  0.51131958  0.92579057     0.30360
C1412       C  0.03804993  0.54049699  0.92469351    -0.20450
C1413       C  0.06067209  0.56935330  0.94338373    -0.08510
C1414       C  0.08740193  0.56767266  0.95961870     0.30370
F1415       F  0.11540711  0.59458252  0.97059270    -0.19030
H1416       H  0.10619138  0.53774836  0.97832671     0.18730
H1417       H  0.02058768  0.54032675  0.90623462     0.18740
F1418       F  0.01219245  0.48507644  0.91063740    -0.19020
C1419       C  0.00950493  0.45129359  0.02589233    -0.20450
C1420       C  0.98025052  0.42300921  0.01493953    -0.08490
C1421       C  0.98357663  0.40576238  0.98529100     0.30360
C1422       C  0.01064342  0.42115026  0.96295295    -0.20450
C1423       C  0.03458155  0.45418396  0.96853163    -0.08510
C1424       C  0.03575496  0.46681067  0.00325478     0.30370
F1425       F  0.06274800  0.49402316  0.51608213    -0.19030
H1426       H  0.01293651  0.46220861  0.55197057     0.18730
H1427       H  0.01335202  0.40666344  0.94217866     0.18740
F1428       F  0.96225700  0.37368137  0.97857275    -0.19020
C1429       C  0.09218699  0.43936674  0.78138140    -0.20450
C1430       C  0.08060521  0.45876910  0.76472453    -0.08490
C1431       C  0.08955395  0.46672572  0.72887387     0.30360
C1432       C  0.11476443  0.46280833  0.71429171    -0.20450
C1433       C  0.12975614  0.44830999  0.73390709    -0.08510
C1434       C  0.11658485  0.43470106  0.76662968     0.30370
F1435       F  0.12828751  0.41817230  0.78543304    -0.19030
H1436       H  0.08292978  0.42778035  0.80649899     0.18730
H1437       H  0.12311769  0.47189994  0.68792209     0.18740
F1438       F  0.07428989  0.47869343  0.70806439    -0.19020
C1439       C  0.02797859  0.43975235  0.84404533    -0.20450
C1440       C  0.05610786  0.45908381  0.82426060    -0.08490
C1441       C  0.08571999  0.47737277  0.84369576     0.30360
C1442       C  0.08670355  0.47854477  0.88056982    -0.20450
C1443       C  0.05860714  0.46309735  0.90166372    -0.08510
C1444       C  0.02863694  0.44257717  0.88173767     0.30370
F1445       F  0.99881537  0.42836314  0.89658459    -0.19030
H1446       H  0.00451149  0.42505785  0.83052761     0.18730
H1447       H  0.11061874  0.49417437  0.89155641     0.18740
F1448       F  0.11405244  0.49674006  0.82675132    -0.19020
C1449       C  0.04990232  0.51365189  0.81042859    -0.20450
C1450       C  0.06512428  0.50424666  0.78446727    -0.08490
C1451       C  0.08812442  0.53065048  0.76377160     0.30360
C1452       C  0.08888444  0.56125112  0.76385412    -0.20450
C1453       C  0.06765648  0.56731122  0.78515214    -0.08510
C1454       C  0.05085890  0.54317242  0.81108992     0.30370
F1455       F  0.03383877  0.54680947  0.83794030    -0.19030
H1456       H  0.03559164  0.49750256  0.83118808     0.18730
H1457       H  0.10710234  0.58010446  0.74792891     0.18740
F1458       F  0.11179995  0.52888095  0.74566871    -0.19020
C1459       C  0.90979027  0.36549072  0.73533778    -0.20450
C1460       C  0.90499333  0.38148978  0.70560023    -0.08490
C1461       C  0.87284732  0.36445739  0.68953228     0.30360
C1462       C  0.84989166  0.33289052  0.69929407    -0.20450
C1463       C  0.85606973  0.31764172  0.72750898    -0.08510
C1464       C  0.88593254  0.33464176  0.74616982     0.30370
F1465       F  0.89214810  0.32157280  0.77523440    -0.19030
H1466       H  0.93186420  0.37629761  0.75162429     0.18730
H1467       H  0.82581205  0.32131231  0.68642137     0.18740
F1468       F  0.86074650  0.37828077  0.66740004    -0.19020
C1469       C  0.91523411  0.40739325  0.62594499    -0.20450
C1470       C  0.93955310  0.40894054  0.64977988    -0.08490
C1471       C  0.96828885  0.41263310  0.63283347     0.30360
C1472       C  0.97003430  0.41159158  0.59523094    -0.20450
C1473       C  0.94477160  0.40968248  0.57289595    -0.08510
C1474       C  0.91659125  0.40587132  0.58940800     0.30370
F1475       F  0.89114691  0.40412260  0.56989726    -0.19030
H1476       H  0.89718397  0.41318217  0.63460433     0.18730
H1477       H  0.99217361  0.41424781  0.58395768     0.18740
F1478       F  0.99690584  0.42234018  0.65060921    -0.19020
C1479       C  0.98454389  0.40923459  0.71655091    -0.20450
C1480       C  0.96510317  0.42426829  0.71688459    -0.08490
C1481       C  0.96890857  0.44305189  0.74832998     0.30360
C1482       C  0.99594006  0.45355362  0.77128914    -0.20450
C1483       C  0.02100845  0.44623070  0.76474991    -0.08510
C1484       C  0.01258282  0.42056026  0.73905092     0.30370
F1485       F  0.03004190  0.40491649  0.73645003    -0.19030
H1486       H  0.97788277  0.38839950  0.69896839     0.18730
H1487       H  0.99619214  0.46722346  0.79440085     0.18740
F1488       F  0.94545127  0.44993073  0.75856048    -0.19020
C1489       C  0.95832044  0.47300608  0.67651305    -0.20450
C1490       C  0.93109886  0.44520083  0.68978088    -0.08490
C1491       C  0.90418252  0.44862709  0.70061043     0.30360
C1492       C  0.90539342  0.47910869  0.69827269    -0.20450
C1493       C  0.93431561  0.50736992  0.68803214    -0.08510
C1494       C  0.96014222  0.50293685  0.67574557     0.30370
F1495       F  0.98899719  0.52840468  0.66562890    -0.19030
H1496       H  0.97959041  0.47185478  0.66790910     0.18730
H1497       H  0.88415165  0.48055416  0.70595611     0.18740
F1498       F  0.87770275  0.42373346  0.71551858    -0.19020
C1499       C  0.65282130  0.09854299  0.70838510    -0.20450
C1500       C  0.62251564  0.09831139  0.70848696    -0.08490
C1501       C  0.62260292  0.12617451  0.72271835     0.30360
C1502       C  0.65156668  0.15231697  0.73677029    -0.20450
C1503       C  0.68137813  0.15214658  0.73631825    -0.08510
C1504       C  0.68171897  0.12488050  0.72207366     0.30370
F1505       F  0.70990954  0.12370681  0.72091300    -0.19030
H1506       H  0.65397629  0.07787633  0.69726350     0.18730
H1507       H  0.65078062  0.17350152  0.74682290     0.18740
F1508       F  0.59601320  0.13004254  0.72078742    -0.19020
C1509       C  0.54810213  0.97939792  0.71996239    -0.20450
C1510       C  0.55856993  0.98228150  0.75611127    -0.08490
C1511       C  0.58589736  0.01189288  0.76759914     0.30360
C1512       C  0.59840416  0.03882736  0.74555399    -0.20450
C1513       C  0.58557024  0.03707794  0.71041833    -0.08510
C1514       C  0.56109405  0.00609304  0.69762218     0.30370
F1515       F  0.54743867  0.00192309  0.66450006    -0.19030
H1516       H  0.52792590  0.95654352  0.70967958     0.18730
H1517       H  0.61679161  0.06151385  0.75788584     0.18740
F1518       F  0.59975769  0.01585483  0.80058819    -0.19020
C1519       C  0.54205715  0.98275833  0.84289616    -0.20450
C1520       C  0.54745199  0.96066171  0.82210059    -0.08490
C1521       C  0.55964516  0.94324620  0.84180758     0.30360
C1522       C  0.55741325  0.94131571  0.87904656    -0.20450
C1523       C  0.54546670  0.95864773  0.89893493    -0.08510
C1524       C  0.54052893  0.98153876  0.88007141     0.30370
F1525       F  0.53176527  0.00131417  0.89748946    -0.19030
H1526       H  0.53798538  0.00093035  0.83135593     0.18730
H1527       H  0.56442385  0.92524614  0.89158131     0.18740
F1528       F  0.57428862  0.92812214  0.82579506    -0.19020
C1529       C  0.66045787  0.11009218  0.03262070    -0.20450
C1530       C  0.62848547  0.09888428  0.01799254    -0.08490
C1531       C  0.62649044  0.11357644  0.98600454     0.30360
C1532       C  0.65419596  0.14065478  0.97266402    -0.20450
C1533       C  0.68519236  0.15326955  0.98951635    -0.08510
C1534       C  0.68814649  0.13697030  0.01906771     0.30370
F1535       F  0.71768039  0.14733921  0.03554169    -0.19030
H1536       H  0.66441191  0.09828315  0.05510706     0.18730
H1537       H  0.65124826  0.15190977  0.94899147     0.18740
F1538       F  0.59776572  0.10149300  0.96716539    -0.19020
C1539       C  0.60891851  0.04740927  0.63269101    -0.20450
C1540       C  0.60421157  0.07094793  0.65115651    -0.08490
C1541       C  0.60916226  0.09850177  0.63183754     0.30360
C1542       C  0.60986746  0.09808903  0.59502472    -0.20450
C1543       C  0.60619249  0.07075220  0.57556736    -0.08510
C1544       C  0.61136408  0.04817338  0.59511187     0.30370
F1545       F  0.61993700  0.02793252  0.57856656    -0.19030
H1546       H  0.61009669  0.02827175  0.64693475     0.18730
H1547       H  0.61093604  0.11861789  0.58157450     0.18740
F1548       F  0.60834445  0.12396046  0.64792880    -0.19020
C1549       C  0.59901851  0.03804017  0.97730756    -0.20450
C1550       C  0.58956828  0.03673703  0.01328198    -0.08490
C1551       C  0.56882069  0.00445928  0.52541616     0.30360
C1552       C  0.55429245  0.97760768  0.50154428    -0.20450
C1553       C  0.55727959  0.98103792  0.96430952    -0.08510
C1554       C  0.58348231  0.01128429  0.95339714     0.30370
F1555       F  0.59584411  0.01556645  0.92026809    -0.19030
H1556       H  0.61840161  0.05986395  0.96631395     0.18730
H1557       H  0.53924482  0.95370138  0.51249792     0.18740
F1558       F  0.56153151  0.99757229  0.56015725    -0.19020
C1559       C  0.12615486  0.65720997  0.71567445    -0.20450
C1560       C  0.14230897  0.68701106  0.73510473    -0.08490
C1561       C  0.13185206  0.68850480  0.76932283     0.30360
C1562       C  0.10711570  0.66060479  0.78447546    -0.20450
C1563       C  0.09182593  0.62954569  0.76650105    -0.08510
C1564       C  0.10066831  0.62911986  0.73064879     0.30370
F1565       F  0.08356302  0.60212703  0.70935478    -0.19030
H1566       H  0.13309797  0.65569448  0.68861876     0.18730
H1567       H  0.09996643  0.66435993  0.81052913     0.18740
F1568       F  0.14614317  0.71682402  0.78888854    -0.19020
C1569       C  0.31512383  0.58568595  0.74261673    -0.20450
C1570       C  0.28104420  0.56946098  0.74503601    -0.08490
C1571       C  0.26589486  0.58509270  0.76135012     0.30360
C1572       C  0.28460184  0.61756260  0.77246423    -0.20450
C1573       C  0.31869812  0.63535326  0.76692805    -0.08510
C1574       C  0.33402690  0.61788930  0.75457087     0.30370
F1575       F  0.36700184  0.63077535  0.75541448    -0.19030
H1576       H  0.32726212  0.57306776  0.73220767     0.18730
H1577       H  0.27221184  0.62947779  0.78399229     0.18740
F1578       F  0.23294495  0.56948878  0.76520356    -0.19020
C1579       C  0.29987497  0.67623917  0.72781527    -0.20450
C1580       C  0.32240867  0.69049012  0.75696651    -0.08490
C1581       C  0.33395616  0.72381195  0.76543465     0.30360
C1582       C  0.31904291  0.73984096  0.75012325    -0.20450
C1583       C  0.29382711  0.72386297  0.72453170    -0.08510
C1584       C  0.28546922  0.69262800  0.71201281     0.30370
F1585       F  0.26199121  0.67715702  0.68609741    -0.19030
H1586       H  0.29295271  0.65231302  0.71701374     0.18730
H1587       H  0.32645854  0.76447663  0.75919530     0.18740
F1588       F  0.35777969  0.74010246  0.79077399    -0.19020
C1589       C  0.56709003  0.89738709  0.73706093    -0.20450
C1590       C  0.54460952  0.86685527  0.74973826    -0.08490
C1591       C  0.52062685  0.86473299  0.77328801     0.30360
C1592       C  0.51856315  0.89243219  0.78257431    -0.20450
C1593       C  0.53951712  0.92319636  0.76798554    -0.08510
C1594       C  0.56520571  0.92517436  0.74623341     0.30370
F1595       F  0.59013433  0.95385781  0.73506470    -0.19030
H1596       H  0.58625909  0.89983980  0.71959082     0.18730
H1597       H  0.50068290  0.88994738  0.80193765     0.18740
F1598       F  0.49915007  0.83585019  0.78771659    -0.19020
C1599       C  0.52245155  0.63644907  0.73128892    -0.20450
C1600       C  0.53937495  0.63676206  0.76288672    -0.08490
C1601       C  0.56292962  0.66839765  0.77675742     0.30360
C1602       C  0.56528529  0.69691780  0.76307512    -0.20450
C1603       C  0.54580728  0.69554788  0.73389708    -0.08510
C1604       C  0.52468557  0.66486240  0.71769951     0.30370
F1605       F  0.50666471  0.66210056  0.68788117    -0.19030
H1606       H  0.51022839  0.61481745  0.71437775     0.18730
H1607       H  0.58271909  0.72024651  0.77529633     0.18740
F1608       F  0.58516787  0.67250629  0.80261354    -0.19020
C1609       C  0.43134205  0.72618295  0.77295143    -0.20450
C1610       C  0.43609817  0.72315383  0.73669429    -0.08490
C1611       C  0.40919832  0.70433468  0.71386591     0.30360
C1612       C  0.37799699  0.68802227  0.72759760    -0.20450
C1613       C  0.37276778  0.68966459  0.76447556    -0.08510
C1614       C  0.40018666  0.71044615  0.78675394     0.30370
F1615       F  0.39749059  0.71813565  0.82101844    -0.19030
H1616       H  0.45182244  0.74188259  0.79064006     0.18730
H1617       H  0.35757090  0.67358554  0.70933379     0.18740
F1618       F  0.41297596  0.70136382  0.67844141    -0.19020
C1619       C  0.57033584  0.89666671  0.47025191    -0.20450
C1620       C  0.54243460  0.86563752  0.96994189    -0.08490
C1621       C  0.51195806  0.86255876  0.96037395     0.30360
C1622       C  0.50943150  0.88977171  0.95141380    -0.20450
C1623       C  0.53723848  0.92121354  0.95099694    -0.08510
C1624       C  0.56803713  0.92401793  0.46028075     0.30370
F1625       F  0.59622000  0.95305596  0.45861841    -0.19030
H1626       H  0.59406236  0.89965570  0.47743534     0.18730
H1627       H  0.48531325  0.88553308  0.94422698     0.18740
F1628       F  0.48405608  0.83310030  0.96051719    -0.19020
C1629       C  0.50884103  0.63226370  0.46356396    -0.20450
C1630       C  0.53744863  0.63258174  0.95260511    -0.08490
C1631       C  0.56697389  0.66322331  0.95320098     0.30360
C1632       C  0.56778242  0.69184223  0.96506235    -0.20450
C1633       C  0.53936442  0.69099417  0.97680725    -0.08510
C1634       C  0.50980957  0.66080644  0.47592412     0.30370
F1635       F  0.48128027  0.65893206  0.48567174    -0.19030
H1636       H  0.48521069  0.61038778  0.46142101     0.18730
H1637       H  0.59075024  0.71468616  0.96519963     0.18740
F1638       F  0.59531991  0.66551873  0.94210855    -0.19020
C1639       C  0.30673254  0.63445064  0.98732832    -0.20450
C1640       C  0.31004141  0.63757586  0.94984786    -0.08490
C1641       C  0.29317776  0.60871033  0.92842188     0.30360
C1642       C  0.27823375  0.57848519  0.94413778    -0.20450
C1643       C  0.27826707  0.57582380  0.98127216    -0.08510
C1644       C  0.29151448  0.60404537  0.50293043     0.30370
F1645       F  0.29074729  0.60241553  0.53903893    -0.19030
H1646       H  0.31746990  0.65594594  0.50472232     0.18730
H1647       H  0.26648248  0.55691614  0.92687013     0.18740
F1648       F  0.28931733  0.60875705  0.89254821    -0.19020
C1649       C  0.31527944  0.68550992  0.87240220    -0.20450
C1650       C  0.33050202  0.67218827  0.89363333    -0.08490
C1651       C  0.34787342  0.65914326  0.87586799     0.30360
C1652       C  0.34920434  0.65907311  0.83878055    -0.20450
C1653       C  0.33409472  0.67266727  0.81775532    -0.08510
C1654       C  0.31495941  0.68364570  0.83545485     0.30370
F1655       F  0.29410692  0.69092589  0.81791207    -0.19030
H1656       H  0.30276030  0.69722447  0.88358354     0.18730
H1657       H  0.36281686  0.64890955  0.82623517     0.18740
F1658       F  0.36310235  0.64579408  0.89442419    -0.19020
C1659       C  0.41993739  0.73895338  0.94934532    -0.20450
C1660       C  0.43090943  0.72523326  0.97504967    -0.08490
C1661       C  0.41032075  0.69336352  0.98577465     0.30360
C1662       C  0.37874843  0.67549149  0.97127823    -0.20450
C1663       C  0.36590807  0.68994960  0.94797970    -0.08510
C1664       C  0.38780644  0.72176537  0.93608117     0.30370
F1665       F  0.37774964  0.73674167  0.91253006    -0.19030
H1666       H  0.43608139  0.76335674  0.94014032     0.18730
H1667       H  0.36494790  0.65033836  0.47871733     0.18740
F1668       F  0.42117871  0.67902628  0.50928147    -0.19020
C1669       C  0.11983235  0.69294033  0.95498222    -0.20450
C1670       C  0.13647382  0.69301453  0.98606607    -0.08490
C1671       C  0.12390281  0.66391694  0.50528669     0.30360
C1672       C  0.09699485  0.63499249  0.49165917    -0.20450
C1673       C  0.08366691  0.63338832  0.95721578    -0.08510
C1674       C  0.09338199  0.66411347  0.94127698     0.30370
F1675       F  0.07701858  0.66717167  0.91288992    -0.19030
H1676       H  0.12759840  0.71529147  0.94071960     0.18730
H1677       H  0.08712228  0.61340896  0.50769740     0.18740
F1678       F  0.13787567  0.66306606  0.53689195    -0.19020
C1679       C  0.26132303  0.69273318  0.95390517    -0.20450
C1680       C  0.27783081  0.72071462  0.97560137    -0.08490
C1681       C  0.31064017  0.73265822  0.98556946     0.30360
C1682       C  0.32717070  0.71730474  0.97298646    -0.20450
C1683       C  0.31159162  0.68992035  0.94938631    -0.08510
C1684       C  0.27762398  0.67686607  0.94174511     0.30370
F1685       F  0.26039570  0.64923315  0.92142861    -0.19030
H1686       H  0.23566924  0.68291016  0.94678942     0.18730
H1687       H  0.35205928  0.72711203  0.98268350     0.18740
F1688       F  0.32710621  0.75983271  0.50679736    -0.19020
C1689       C  0.48604327  0.35375890  0.72924234    -0.20450
C1690       C  0.45620373  0.32428885  0.72702434    -0.08490
C1691       C  0.42846515  0.32477775  0.71379956     0.30360
C1692       C  0.43110283  0.35422414  0.70243763    -0.20450
C1693       C  0.46172195  0.38370239  0.70167557    -0.08510
C1694       C  0.48889541  0.38292678  0.71764092     0.30370
F1695       F  0.51807562  0.41008120  0.72479491    -0.19030
H1696       H  0.50772539  0.35447170  0.74053297     0.18730
H1697       H  0.40898625  0.35395503  0.69345633     0.18740
F1698       F  0.39875101  0.29718752  0.71275317    -0.19020
C1699       C  0.57549972  0.31801773  0.70231949    -0.20450
C1700       C  0.56467408  0.29159622  0.72496135    -0.08490
C1701       C  0.58623244  0.28110756  0.73618211     0.30360
C1702       C  0.61852321  0.29725247  0.72549427    -0.20450
C1703       C  0.63105061  0.32569274  0.70475302    -0.08510
C1704       C  0.60816583  0.33494270  0.69231643     0.30370
F1705       F  0.61754390  0.36059905  0.67041480    -0.19030
H1706       H  0.55882102  0.32604780  0.69302456     0.18730
H1707       H  0.63295491  0.28645051  0.73361201     0.18740
F1708       F  0.57577115  0.25443500  0.75671162    -0.19020
C1709       C  0.43931941  0.35872083  0.98968517    -0.20450
C1710       C  0.46204502  0.37901510  0.01715239    -0.08490
C1711       C  0.47748998  0.36454732  0.53674843     0.30360
C1712       C  0.47263522  0.33357075  0.52710981    -0.20450
C1713       C  0.45157678  0.31524562  0.99842161    -0.08510
C1714       C  0.43467369  0.32809220  0.98019211     0.30370
F1715       F  0.41310031  0.31089824  0.95314103    -0.19030
H1716       H  0.42343108  0.36516065  0.97538970     0.18730
H1717       H  0.48545996  0.32387338  0.54234732     0.18740
F1718       F  0.49454358  0.37851447  0.56763534    -0.19020
C1719       C  0.58765266  0.28645912  0.97507402    -0.20450
C1720       C  0.56444333  0.29406947  0.98756522    -0.08490
C1721       C  0.57330213  0.31866593  0.51359243     0.30360
C1722       C  0.60498631  0.33488612  0.52770844    -0.20450
C1723       C  0.62853298  0.32651010  0.51691651    -0.08510
C1724       C  0.61946908  0.30243962  0.98928303     0.30370
F1725       F  0.64098803  0.29489474  0.97442911    -0.19030
H1726       H  0.58099872  0.26773441  0.95449945     0.18730
H1727       H  0.61125483  0.35401654  0.54765548     0.18740
F1728       F  0.55143678  0.32740297  0.52496699    -0.19020
C1729       C  0.53635728  0.04607209  0.54570111    -0.20450
C1730       C  0.56579555  0.07258808  0.03414485    -0.08490
C1731       C  0.56445269  0.10185162  0.02864613     0.30360
C1732       C  0.53434347  0.10178467  0.02840148    -0.20450
C1733       C  0.50452155  0.07300410  0.03425976    -0.08510
C1734       C  0.50685022  0.04590367  0.54555496     0.30370
F1735       F  0.47986034  0.01805246  0.55531048    -0.19030
H1736       H  0.53529028  0.02486301  0.55627931     0.18730
H1737       H  0.53476274  0.12454899  0.02420646     0.18740
F1738       F  0.59191998  0.13131458  0.02622311    -0.19020
C1739       C  0.43895459  0.10061838  0.02303386    -0.20450
C1740       C  0.46516562  0.09590737  0.01214768    -0.08490
C1741       C  0.48311804  0.11400841  0.98272366     0.30360
C1742       C  0.47825751  0.13861247  0.96897816    -0.20450
C1743       C  0.45464521  0.14536683  0.98285211    -0.08510
C1744       C  0.43419405  0.12532659  0.00927000     0.30370
F1745       F  0.41014459  0.13000243  0.02252400    -0.19030
H1746       H  0.42206839  0.08540533  0.04292998     0.18730
H1747       H  0.49366413  0.15290368  0.94755598     0.18740
F1748       F  0.50555899  0.10859088  0.96674720    -0.19020
C1749       C  0.44600039  0.93068026  0.90757875    -0.20450
C1750       C  0.43483345  0.94108676  0.93696653    -0.08490
C1751       C  0.45271257  0.94651581  0.96949437     0.30360
C1752       C  0.48347759  0.94862438  0.97043766    -0.20450
C1753       C  0.49755205  0.94357547  0.93957552    -0.08510
C1754       C  0.47574928  0.93047562  0.90926437     0.30370
F1755       F  0.48297265  0.91745787  0.88070877    -0.19030
H1756       H  0.43193470  0.92263889  0.88279018     0.18730
H1757       H  0.49549264  0.95462712  0.99607080     0.18740
F1758       F  0.44139574  0.95203057  0.00041261    -0.19020
C1759       C  0.37439316  0.89402230  0.96714222    -0.20450
C1760       C  0.37401146  0.92037083  0.95030607    -0.08490
C1761       C  0.34283012  0.91820225  0.94588269     0.30360
C1762       C  0.31401355  0.89114410  0.95790312    -0.20450
C1763       C  0.31515747  0.86516087  0.97412512    -0.08510
C1764       C  0.34592781  0.86726017  0.97879263     0.30370
F1765       F  0.34892654  0.84308388  0.99441119    -0.19030
H1766       H  0.39654821  0.89294563  0.97105723     0.18730
H1767       H  0.29075059  0.89020453  0.95372160     0.18740
F1768       F  0.34012892  0.94189309  0.92869828    -0.19020
C1769       C  0.45067816  0.00655207  0.95126697    -0.20450
C1770       C  0.41776516  0.98210155  0.95524346    -0.08490
C1771       C  0.40066908  0.98864362  0.48246894     0.30360
C1772       C  0.41637127  0.01736037  0.50394246    -0.20450
C1773       C  0.45033205  0.03856522  0.00293088    -0.08510
C1774       C  0.46655802  0.03347443  0.97402500     0.30370
F1775       F  0.49879586  0.05339379  0.96793838    -0.19030
H1776       H  0.46599419  0.00341848  0.93220896     0.18730
H1777       H  0.40177062  0.02224677  0.52229854     0.18740
F1778       F  0.36925699  0.96767782  0.49034134    -0.19020
C1779       C  0.36556345  0.88435296  0.77347283    -0.20450
C1780       C  0.37382855  0.91521067  0.75972130    -0.08490
C1781       C  0.34958001  0.91618379  0.73705027     0.30360
C1782       C  0.31993955  0.88797373  0.72844511    -0.20450
C1783       C  0.31231911  0.85799463  0.74275493    -0.08510
C1784       C  0.33551545  0.85641883  0.76544566     0.30370
F1785       F  0.32934790  0.82785459  0.78005341    -0.19030
H1786       H  0.38173127  0.88229153  0.79281513     0.18730
H1787       H  0.30249123  0.88980598  0.71082999     0.18740
F1788       F  0.35282832  0.94422435  0.72403897    -0.19020
C1789       C  0.37343086  0.92798655  0.83474867    -0.20450
C1790       C  0.39929014  0.95267785  0.81539573    -0.08490
C1791       C  0.42128589  0.98046479  0.83660054     0.30360
C1792       C  0.42040231  0.98029025  0.87400996    -0.20450
C1793       C  0.39940824  0.95204321  0.89306001    -0.08510
C1794       C  0.37544605  0.92562618  0.87167799     0.30370
F1795       F  0.35494932  0.89596353  0.88505867    -0.19030
H1796       H  0.35186317  0.90844446  0.82199984     0.18730
H1797       H  0.43725809  0.00290604  0.88714343     0.18740
F1798       F  0.44268999  0.00917905  0.82216676    -0.19020
C1799       C  0.47328162  0.92077208  0.76487803    -0.20450
C1800       C  0.50192422  0.94974908  0.77639965    -0.08490
C1801       C  0.49796217  0.97752927  0.77938441     0.30360
C1802       C  0.46742147  0.97485260  0.78011339    -0.20450
C1803       C  0.43796589  0.94523050  0.77423875    -0.08510
C1804       C  0.44226636  0.91875444  0.76251107     0.30370
F1805       F  0.41847964  0.89242490  0.74443217    -0.19030
H1806       H  0.47452275  0.89999608  0.75480864     0.18730
H1807       H  0.46774577  0.99768918  0.78053614     0.18740
F1808       F  0.52354465  0.00846560  0.77782434    -0.19020
C1809       C  0.43001654  0.12276422  0.71272252    -0.20450
C1810       C  0.45812369  0.14986638  0.72735035    -0.08490
C1811       C  0.48735176  0.14849071  0.72963551     0.30360
C1812       C  0.48844357  0.12099465  0.71742513    -0.20450
C1813       C  0.46030654  0.09324771  0.70318721    -0.08510
C1814       C  0.43098692  0.09492147  0.70080656     0.30370
F1815       F  0.40322760  0.06961717  0.68618299    -0.19030
H1816       H  0.40725637  0.12313819  0.71034675     0.18730
H1817       H  0.51210602  0.12263295  0.71794331     0.18740
F1818       F  0.51565942  0.17442402  0.74234810    -0.19020
C1819       C  0.43555324  0.03741648  0.58623347    -0.20450
C1820       C  0.45888991  0.06596779  0.56919111    -0.08490
C1821       C  0.47590817  0.09458641  0.59093920     0.30360
C1822       C  0.47290794  0.09373956  0.62771535    -0.20450
C1823       C  0.45287813  0.06444395  0.64535085    -0.08510
C1824       C  0.43123506  0.03715240  0.62347533     0.30370
F1825       F  0.40669917  0.00978676  0.63749558    -0.19030
H1826       H  0.42173542  0.01452055  0.57184450     0.18730
H1827       H  0.48935856  0.11577472  0.64278049     0.18740
F1828       F  0.49791744  0.12345782  0.57689097    -0.19020
C1829       C  0.42226772  0.03006528  0.73661043    -0.20450
C1830       C  0.43895205  0.03117146  0.70494925    -0.08490
C1831       C  0.43837164  0.00201439  0.69439321     0.30360
C1832       C  0.42416633  0.97459751  0.71549458    -0.20450
C1833       C  0.41178563  0.97521605  0.74935229    -0.08510
C1834       C  0.40815629  0.00235806  0.75791078     0.30370
F1835       F  0.39099719  0.00243588  0.78658506    -0.19030
H1836       H  0.42113073  0.05097583  0.74652991     0.18730
H1837       H  0.42537797  0.95333291  0.70660460     0.18740
F1838       F  0.45343913  0.00030141  0.66457445    -0.19020
C1839       C  0.51050198  0.06172401  0.65719743    -0.20450
C1840       C  0.49673282  0.06691850  0.68802043    -0.08490
C1841       C  0.51346041  0.06921854  0.72077188     0.30360
C1842       C  0.54403598  0.07013719  0.72143105    -0.20450
C1843       C  0.55899258  0.06818572  0.68967483    -0.08510
C1844       C  0.53936348  0.06082758  0.65800834     0.30370
F1845       F  0.54544127  0.04916446  0.62759084    -0.19030
H1846       H  0.49776047  0.05508724  0.63165961     0.18730
H1847       H  0.55616566  0.07240257  0.74694893     0.18740
F1848       F  0.50014177  0.07027969  0.75224018    -0.19020
loop_ 
_geom_bond_atom_site_label_1 
_geom_bond_atom_site_label_2 
_geom_bond_distance 
_geom_bond_site_symmetry_2 
_ccdc_geom_bond_type 
C1          C889   1.565       .  S
C1          C899   1.570       .  S
C1          C906   1.562       .  S
C1          C916   1.582       .  S
C2          C856   1.574       .  S
C2          C866   1.595       .  S
C2          C879   1.589       .  S
C2          C909   1.560       .  S
C3          C826   1.583       .  S
C3          C836   1.569       .  S
C3          C846   1.584       .  S
C3          C869   1.583       .  S
C4          C896   1.570       .  S
C4         C1733   1.565       .  S
C4         C1740   1.558       .  S
C4         C1773   1.563       .  S
O5            C8   1.265       .  A
O5          Cd10   2.377       .  S
C6           O15   1.262       .  A
C6           O11   1.266       .  A
C6          C796   1.452       .  S
O7           C13   1.263       .  A
O7          Cd10   2.461       .  S
C8           O16   1.271       .  A
C8           C19   1.461       .  S
C9           O14   1.273       .  A
C9           O12   1.258       .  A
C9          C819   1.481       .  S
Cd10         O17   2.473       .  S
Cd10         O16   2.499       .  S
Cd10         O15   2.383       .  S
Cd10         O11   2.436       .  S
Cd10         O14   2.528       .  S
Cd10         O12   2.380       .  S
C13          O17   1.269       .  A
C13         C789   1.485       .  S
O18          C21   1.266       .  A
O18         Cd23   2.402       .  S
C19          O28   1.270       .  A
C19          O24   1.261       .  A
O20          C26   1.276       .  A
O20         Cd23   2.556       .  S
C21          O29   1.267       .  A
C21         C776   1.460       .  S
C22          O27   1.276       .  A
C22          O25   1.260       .  A
C22         C886   1.493       .  S
Cd23         O30   2.380       .  S
Cd23         O29   2.443       .  S
Cd23         O28   2.518       .  S
Cd23         O24   2.381       .  S
Cd23         O27   2.560       .  S
Cd23         O25   2.402       .  S
C26          O30   1.261       .  A
C26         C766   1.487       .  S
O31         C958   1.264   1_554  A
O31         Cd36   2.376       .  S
C32          O41   1.270       .  A
C32          O37   1.259       .  A
C32          C73   1.451       .  S
O33         C963   1.276       .  A
O33        Cd960   2.583       .  S
C34          O42   1.268       .  A
C34         O955   1.264       .  A
C34         C756   1.452       .  S
C35          O38   1.261   1_556  A
C35         O964   1.276       .  A
C35        C1670   1.486       .  S
Cd36         O43   2.368   1_554  S
Cd36         O41   2.496       .  S
Cd36         O37   2.343       .  S
Cd36         O38   2.425       .  S
Cd36        O957   2.583   1_554  S
Cd36        O966   2.430   1_554  S
Cd36        O964   2.499   1_554  S
C39          O43   1.257       .  A
C39         O957   1.276       .  A
C39        C1763   1.493       .  S
O40         C959   1.276       .  A
O40        Cd960   2.499       .  S
O42        Cd960   2.430       .  S
C44         C716   1.547       .  S
C44         C726   1.550       .  S
C44         C739   1.554       .  S
C44         C759   1.549       .  S
O45          C48   1.265       .  A
O45         Cd50   2.412       .  S
C46          O55   1.265       .  A
C46         O975   1.270       .  A
C46         C736   1.455       .  S
O47         C977   1.271       .  A
O47        Cd974   2.551       .  S
C48          O56   1.269       .  A
C48          C59   1.463       .  S
C49          O52   1.257   1_556  A
C49         O978   1.275       .  A
C49        C1633   1.486       .  S
Cd50         O57   2.413   1_554  S
Cd50         O56   2.492       .  S
Cd50         O51   2.431       .  S
Cd50         O52   2.401       .  S
Cd50        O971   2.551       .  S
Cd50        O979   2.396   1_554  S
Cd50        O978   2.549   1_554  S
O51         C970   1.270   1_554  A
C53          O57   1.258       .  A
C53         O971   1.271   1_556  A
C53        C1620   1.484       .  S
O54         C973   1.275       .  A
O54        Cd974   2.549       .  S
O55        Cd974   2.396       .  S
O58          C61   1.270       .  A
O58         Cd63   2.420       .  S
C59          O68   1.270       .  A
C59          O64   1.264       .  A
O60          C66   1.256       .  A
O60         Cd63   2.420       .  S
C61          O69   1.266       .  A
C61         C686   1.457       .  S
C62          O67   1.274       .  A
C62          O65   1.260       .  A
C62         C679   1.488       .  S
Cd63         O70   2.539       .  S
Cd63         O69   2.362       .  S
Cd63         O68   2.494       .  S
Cd63         O64   2.406       .  S
Cd63         O67   2.530       .  S
Cd63         O65   2.406       .  S
C66          O70   1.273       .  A
C66         C666   1.485       .  S
C71         C649   1.543       .  S
C71         C656   1.545       .  S
C71         C689   1.539       .  S
C71         C729   1.545       .  S
O72          C75   1.266       .  A
O72         Cd77   2.448       .  S
C73          O82   1.270       .  A
C73          O78   1.264       .  A
O74          C80   1.271       .  A
O74         Cd77   2.489       .  S
C75          O83   1.262       .  A
C75         C659   1.455       .  S
C76          O81   1.263       .  A
C76          O79   1.269       .  A
C76         C859   1.481       .  S
Cd77         O84   2.437       .  S
Cd77         O83   2.380       .  S
Cd77         O82   2.479       .  S
Cd77         O78   2.350       .  S
Cd77         O81   2.433       .  S
Cd77         O79   2.479       .  S
C80          O84   1.259       .  A
C80         C636   1.480       .  S
C85         C619   1.562       .  S
C85        C1530   1.574       .  S
C85        C1550   1.594       .  S
C85        C1730   1.591       .  S
C86         C599   1.567       .  S
C86         C629   1.579       .  S
C86         C699   1.560       .  S
C86         C829   1.597       .  S
C87         C586   1.548       .  S
C87         C596   1.590       .  S
C87         C669   1.573       .  S
C87         C876   1.587       .  S
C88         C576   1.552       .  S
C88         C589   1.558       .  S
C88         C616   1.556       .  S
C88         C919   1.579       .  S
C89         C536   1.594       .  S
C89         C546   1.593       .  S
C89         C556   1.577       .  S
C89         C566   1.565       .  S
C90         C506   1.572       .  S
C90         C516   1.566       .  S
C90         C526   1.602       .  S
C90         C559   1.580       .  S
C91         C479   1.583       .  S
C91         C486   1.587       .  S
C91         C499   1.565       .  S
C91         C519   1.598       .  S
C92         C549   1.556       .  S
C92        C1383   1.603       .  S
C92        C1390   1.575       .  S
C92        C1420   1.579       .  S
O93          C96   1.267       .  A
O93         Cd98   2.416       .  S
C94         O103   1.270       .  A
C94          O99   1.262       .  A
C94         C123   1.454       .  S
O95         C101   1.275       .  A
O95         Cd98   2.517       .  S
C96         O104   1.268       .  A
C96         C449   1.468       .  S
C97         O102   1.261       .  A
C97         O100   1.275       .  A
C97         C426   1.486       .  S
Cd98        O105   2.371       .  S
Cd98        O104   2.414       .  S
Cd98        O103   2.498       .  S
Cd98         O99   2.351       .  S
Cd98        O102   2.396       .  S
Cd98        O100   2.544       .  S
C101        O105   1.261       .  A
C101        C436   1.478       .  S
C106        C406   1.554       .  S
C106        C419   1.548       .  S
C106        C446   1.554       .  S
C106        C799   1.539       .  S
O107        C110   1.264       .  A
O107       Cd112   2.423       .  S
C108        O117   1.270       .  A
C108        O113   1.264       .  A
C108        C137   1.452       .  S
O109        C115   1.274       .  A
O109       Cd112   2.504       .  S
C110        O118   1.265       .  A
C110        C409   1.459       .  S
C111        O116   1.274       .  A
C111        O114   1.264       .  A
C111        C609   1.491       .  S
Cd112       O119   2.428       .  S
Cd112       O118   2.435       .  S
Cd112       O117   2.480       .  S
Cd112       O113   2.357       .  S
Cd112       O116   2.516       .  S
Cd112       O114   2.441       .  S
C115        O119   1.260       .  A
C115        C469   1.484       .  S
O120        C123   1.260       .  A
O120       Cd125   2.350       .  S
C121        O130   1.267       .  A
C121        O126   1.265       .  A
C121        C396   1.454       .  S
O122        C128   1.273       .  A
O122       Cd125   2.544       .  S
C123        O131   1.270       .  A
C124        O129   1.273       .  A
C124        O127   1.260       .  A
C124        C376   1.483       .  S
Cd125       O132   2.400       .  S
Cd125       O131   2.506       .  S
Cd125       O130   2.416       .  S
Cd125       O126   2.409       .  S
Cd125       O129   2.529       .  S
Cd125       O127   2.394       .  S
C128        O132   1.258       .  A
C128        C386   1.481       .  S
C133        C366   1.543       .  S
C133        C399   1.566       .  S
C133        C416   1.569       .  S
C133        C779   1.569       .  S
O134        C137   1.264       .  A
O134       Cd139   2.348       .  S
C135        O144   1.263       .  A
C135        O140   1.267       .  A
C135        C369   1.463       .  S
O136        C142   1.266       .  A
O136       Cd139   2.450       .  S
C137        O145   1.272       .  A
C138        O143   1.275       .  A
C138        O141   1.259       .  A
C138        C579   1.475       .  S
Cd139       O146   2.457       .  S
Cd139       O145   2.475       .  S
Cd139       O144   2.396       .  S
Cd139       O140   2.415       .  S
Cd139       O143   2.502       .  S
Cd139       O141   2.360       .  S
C142        O146   1.264       .  A
C142        C539   1.475       .  S
C147        C346   1.553       .  S
C147        C359   1.585       .  S
C147        C489   1.602       .  S
C147        C749   1.574       .  S
C148        C339   1.593       .  S
C148       C1280   1.564       .  S
C148       C1353   1.578       .  S
C148       C1380   1.587       .  S
C149        C326   1.568       .  S
C149        C336   1.569       .  S
C149        C379   1.569       .  S
C149        C569   1.565       .  S
C150        C329   1.576       .  S
C150        C349   1.553       .  S
C150        C529   1.604       .  S
C150        C639   1.567       .  S
C151        C299   1.577       .  S
C151       C1233   1.565       .  S
C151       C1240   1.597       .  S
C151       C1710   1.585       .  S
C152        C276   1.572       .  S
C152       C1210   1.559       .  S
C152       C1243   1.569       .  S
C152       C1363   1.555       .  S
C153        C249   1.552       .  S
C153        C256   1.564       .  S
C153        C266   1.585       .  S
C153        C306   1.555       .  S
C154        C236   1.568       .  S
C154        C269   1.580       .  S
C154        C289   1.562       .  S
C154        C706   1.555       .  S
C155        C216   1.570       .  S
C155        C226   1.579       .  S
C155        C296   1.578       .  S
C155        C769   1.572       .  S
C156        C206   1.559       .  S
C156        C229   1.576       .  S
C156        C279   1.575       .  S
C156        C389   1.562       .  S
C157        C189   1.578       .  S
C157        C196   1.580       .  S
C157        C219   1.573       .  S
C157        C259   1.566       .  S
C158        C199   1.611       .  S
C158        C209   1.592       .  S
C158        C239   1.577       .  S
C158        C676   1.575       .  S
O159        C162   1.263       .  A
O159       Cd164   2.383       .  S
C160        O169   1.265       .  A
C160        O165   1.265       .  A
C160        C646   1.457       .  S
O161        C167   1.273       .  A
O161       Cd164   2.505       .  S
C162        O170   1.270       .  A
C162        C175   1.456       .  S
C163        O168   1.270       .  A
C163        O166   1.261       .  A
C163        C186   1.487       .  S
Cd164       O171   2.442       .  S
Cd164       O170   2.478       .  S
Cd164       O169   2.425       .  S
Cd164       O165   2.405       .  S
Cd164       O168   2.535       .  S
Cd164       O166   2.430       .  S
C167        O171   1.260       .  A
C167        C509   1.487       .  S
O172        C175   1.267       .  A
O172       Cd177   2.382       .  S
C173        O182   1.263       .  A
C173       O1102   1.271       .  A
C173        C719   1.462       .  S
O174       C1104   1.275       .  A
O174      Cd1101   2.507       .  S
C175        O183   1.270       .  A
C176        O179   1.267   1_556  A
C176       O1105   1.260       .  A
C176        C476   1.477       .  S
Cd177       O184   2.392       .  S
Cd177       O183   2.462       .  S
Cd177       O178   2.452       .  S
Cd177       O179   2.515       .  S
Cd177      O1098   2.507   1_554  S
Cd177      O1106   2.345   1_554  S
Cd177      O1105   2.423   1_554  S
O178       C1097   1.271   1_554  A
C180        O184   1.260   1_556  A
C180       O1098   1.275       .  A
C180        C246   1.479       .  S
O181       C1100   1.260       .  A
O181      Cd1101   2.423       .  S
O182      Cd1101   2.345       .  S
C185        C186   1.401       .  A
C185        C190   1.398       .  A
C185        H192   1.084       .  S
C186        C187   1.398       .  A
C187        C188   1.406       .  A
C187        F194   1.357       .  S
C188        C189   1.428       .  A
C188        H193   1.081       .  S
C189        C190   1.423       .  A
C190        F191   1.349       .  S
C195        C196   1.408       .  A
C195        C200   1.396       .  A
C195        H202   1.077       .  S
C196        C197   1.412       .  A
C197        C198   1.421       .  A
C197        F204   1.355       .  S
C198        C199   1.432       .  A
C198        H203   1.069       .  S
C199        C200   1.423       .  A
C200        F201   1.347       .  S
C205        C206   1.399       .  A
C205        C210   1.405       .  A
C205        H212   1.080       .  S
C206        C207   1.417       .  A
C207        C208   1.396       .  A
C207        F214   1.357       .  S
C208        C209   1.414       .  A
C208        H213   1.071       .  S
C209        C210   1.437       .  A
C210        F211   1.350       .  S
C215        C216   1.418       .  A
C215        C220   1.402       .  A
C215        H222   1.082       .  S
C216        C217   1.413       .  A
C217        C218   1.401       .  A
C217        F224   1.354       .  S
C218        C219   1.418       .  A
C218        H223   1.082       .  S
C219        C220   1.420       .  A
C220        F221   1.354       .  S
C225        C226   1.410       .  A
C225        C230   1.382       .  A
C225        H232   1.075       .  S
C226        C227   1.421       .  A
C227        C228   1.413       .  A
C227        F234   1.358       .  S
C228        C229   1.418       .  A
C228        H233   1.083       .  S
C229        C230   1.423       .  A
C230        F231   1.352       .  S
C235        C236   1.414       .  A
C235        C240   1.395       .  A
C235        H242   1.083       .  S
C236        C237   1.415       .  A
C237        C238   1.414       .  A
C237        F244   1.356       .  S
C238        C239   1.420       .  A
C238        H243   1.080       .  S
C239        C240   1.414       .  A
C240        F241   1.358       .  S
C245        C246   1.395       .  A
C245        C250   1.395       .  A
C245        H252   1.083       .  S
C246       C1171   1.412       .  A
C247        C248   1.398       .  A
C247       C1170   1.412       .  A
C247        F254   1.358       .  S
C248        C249   1.407       .  A
C248        H253   1.078       .  S
C249       C1174   1.423       .  A
C250       C1173   1.423       .  A
C250        F251   1.357       .  S
C255        C256   1.406       .  A
C255        C260   1.381       .  A
C255        H262   1.084       .  S
C256        C257   1.415       .  A
C257        C258   1.419       .  A
C257        F264   1.356       .  S
C258        C259   1.420       .  A
C258        H263   1.081       .  S
C259        C260   1.418       .  A
C260        F261   1.353       .  S
C265        C266   1.410       .  A
C265        C270   1.379       .  A
C265        H272   1.081       .  S
C266        C267   1.419       .  A
C267        C268   1.423       .  A
C267       F1198   1.357       .  S
C268        C269   1.422       .  A
C268       H1197   1.082       .  S
C269        C270   1.418       .  A
C270        F271   1.352       .  S
H273       C1192   1.082       .  S
F274       C1191   1.357   1_554  S
C275        C276   1.418       .  A
C275        C280   1.412       .  A
C275        H282   1.080       .  S
C276        C277   1.420       .  A
C277        C278   1.390       .  A
C277        F284   1.356       .  S
C278        C279   1.415       .  A
C278        H283   1.079       .  S
C279        C280   1.417       .  A
C280        F281   1.357       .  S
C285        C286   1.415       .  A
C285        C290   1.389       .  A
C285        H292   1.081       .  S
C286       C1076   1.559       .  S
C286        C287   1.409       .  A
C287        C288   1.409       .  A
C287       F1218   1.355       .  S
C288        C289   1.426       .  A
C288       H1217   1.080       .  S
C289        C290   1.410       .  A
C290        F291   1.353       .  S
H293       C1212   1.080   1_554  S
F294       C1211   1.355       .  S
C295        C296   1.417       .  A
C295        C300   1.402       .  A
C295        H302   1.071       .  S
C296        C297   1.421       .  A
C297        C298   1.397       .  A
C297        F304   1.358       .  S
C298        C299   1.414       .  A
C298        H303   1.074       .  S
C299        C300   1.417       .  A
C300        F301   1.357       .  S
C305        C310   1.399   1_556  A
C305       C1230   1.423       .  A
C305        H312   1.079   1_556  S
C306        C307   1.409       .  A
C306       C1229   1.423       .  A
C307        C308   1.393       .  A
C307        F314   1.355       .  S
C308        C309   1.419       .  A
C308        H313   1.084       .  S
C309       C1075   1.565       .  S
C309       C1234   1.409       .  A
C310       C1233   1.409       .  A
C310        F311   1.356       .  S
C315        C320   1.378       .  A
C315       C1240   1.421       .  A
C315        H322   1.081       .  S
C316       C1075   1.597       .  S
C316        C317   1.424       .  A
C316       C1239   1.421       .  A
C317        C318   1.417       .  A
C317        F324   1.347       .  S
C318        C319   1.415       .  A
C318        H323   1.082       .  S
C319       C1076   1.569       .  S
C319       C1244   1.413       .  A
C320       C1243   1.413       .  A
C320        F321   1.356       .  S
C325        C326   1.410       .  A
C325        C330   1.419   1_655  A
C325        H332   1.082       .  S
C326        C327   1.422       .  A
C327        C328   1.376   1_655  A
C327        F334   1.354       .  S
C328        C329   1.398       .  A
C328        H333   1.065       .  S
C329        C330   1.431       .  A
C330        F331   1.356       .  S
C335        C336   1.411       .  A
C335        C340   1.418       .  A
C335        H342   1.078       .  S
C336        C337   1.410       .  A
C337        C338   1.383       .  A
C337        F344   1.359       .  S
C338        C339   1.412       .  A
C338        H343   1.068       .  S
C339        C340   1.437       .  A
C340        F341   1.354   1_655  S
C345        C346   1.409       .  A
C345        C350   1.382       .  A
C345        H352   1.083       .  S
C346        C347   1.418       .  A
C347        C348   1.409       .  A
C347        F354   1.356       .  S
C348        C349   1.413       .  A
C348        H353   1.081       .  S
C349        C350   1.414       .  A
C350        F351   1.359       .  S
C355        C356   1.410       .  A
C355        C360   1.392       .  A
C355        H362   1.079       .  S
C356       C1072   1.564       .  S
C356        C357   1.410       .  A
C357        C358   1.409   1_655  A
C357        F364   1.357       .  S
C358        C359   1.425       .  A
C358        H363   1.079       .  S
C359        C360   1.419   1_455  A
C360        F361   1.353       .  S
C365        C366   1.412       .  A
C365        C370   1.389       .  A
C365        H372   1.080       .  S
C366        C367   1.419       .  A
C367        C368   1.387       .  A
C367        F374   1.359       .  S
C368        C369   1.398       .  A
C368        H373   1.083       .  S
C369        C370   1.404       .  A
C370        F371   1.358       .  S
C375        C376   1.403       .  A
C375        C380   1.395       .  A
C375        H382   1.083       .  S
C376        C377   1.398       .  A
C377        C378   1.402       .  A
C377        F384   1.357       .  S
C378        C379   1.426       .  A
C378        H383   1.081       .  S
C379        C380   1.417       .  A
C380        F381   1.348       .  S
C385        C386   1.407       .  A
C385        C390   1.399       .  A
C385        H392   1.084       .  S
C386        C387   1.397       .  A
C387        C388   1.400       .  A
C387        F394   1.357       .  S
C388        C389   1.424       .  A
C388        H393   1.083       .  S
C389        C390   1.414       .  A
C390        F391   1.354       .  S
C395        C396   1.390       .  A
C395        C400   1.388       .  A
C395        H402   1.084       .  S
C396        C397   1.395       .  A
C397        C398   1.390       .  A
C397        F404   1.358       .  S
C398        C399   1.419       .  A
C398        H403   1.072       .  S
C399        C400   1.430       .  A
C400        F401   1.359       .  S
C405        C406   1.418       .  A
C405        C410   1.388       .  A
C405        H412   1.080       .  S
C406       C1331   1.423       .  A
C407        C408   1.395       .  A
C407       C1330   1.424       .  A
C407        F414   1.353       .  S
C408        C409   1.396       .  A
C408        H413   1.084       .  S
C409       C1334   1.394       .  A
C410       C1333   1.395       .  A
C410        F411   1.358       .  S
C415        C416   1.417       .  A
C415        C420   1.389       .  A
C415        H422   1.081       .  S
C416        C417   1.423       .  A
C417        C418   1.391       .  A
C417        F424   1.344       .  S
C418        C419   1.402       .  A
C418        H423   1.084       .  S
C419        C420   1.415       .  A
C420        F421   1.357       .  S
C425        C430   1.396       .  A
C425       C1350   1.402   1_554  A
C425        H432   1.084       .  S
C426        C427   1.400       .  A
C426       C1349   1.402       .  A
C427        C428   1.405       .  A
C427        F434   1.357       .  S
C428        C429   1.423       .  A
C428        H433   1.079       .  S
C429       C1072   1.578       .  S
C429       C1354   1.425       .  A
C430       C1353   1.425       .  A
C430        F431   1.357       .  S
C435        C436   1.397       .  A
C435        C440   1.401       .  A
C435        H442   1.083       .  S
C436        C437   1.409       .  A
C437        C438   1.393       .  A
C437        F444   1.358       .  S
C438        C439   1.408       .  A
C438        H443   1.078       .  S
C439       C1076   1.555       .  S
C439        C440   1.424       .  A
C440        F441   1.358       .  S
C445        C450   1.392       .  A
C445       C1370   1.415       .  A
C445        H452   1.083       .  S
C446        C447   1.421       .  A
C446       C1369   1.415   1_554  A
C447        C448   1.391       .  A
C447        F454   1.356       .  S
C448       C1373   1.398   1_554  A
C448        H453   1.084       .  S
C449        C450   1.402       .  A
C449       C1372   1.398       .  A
C450        F451   1.357       .  S
C455        C456   1.421       .  A
C455        C460   1.417       .  A
C455        H462   1.079       .  S
C456       C1072   1.587       .  S
C456       C1381   1.409       .  A
C457        C458   1.384       .  A
C457       C1380   1.409       .  A
C457        F464   1.345       .  S
C458       C1383   1.416       .  A
C458        H463   1.074       .  S
C459       C1016   1.603       .  S
C459        C460   1.428       .  A
C459       C1382   1.416       .  A
C460        F461   1.348       .  S
C465        C466   1.412       .  A
C465        C470   1.404       .  A
C465        H472   1.083       .  S
C466       C1016   1.575       .  S
C466       C1391   1.434       .  A
C467       C1390   1.434       .  A
C467       C1392   1.394       .  A
C467        F474   1.357       .  S
C468        C469   1.393       .  A
C468       C1391   1.394       .  A
C468       H1397   1.083       .  S
C469        C470   1.410       .  A
C470        F471   1.357       .  S
H473       C1392   1.083       .  S
C475        C480   1.396       .  A
C475       C1400   1.399       .  A
C475        H482   1.084       .  S
C476        C477   1.394       .  A
C476       C1399   1.399       .  A
C477        C478   1.401       .  A
C477        F484   1.357       .  S
C478       C1403   1.428       .  A
C478        H483   1.077       .  S
C479        C480   1.429       .  A
C479       C1402   1.428       .  A
C480        F481   1.357       .  S
C485        C486   1.420       .  A
C485        C490   1.419       .  A
C485        H492   1.077       .  S
C486        C487   1.409       .  A
C487        C488   1.389       .  A
C487        F494   1.349       .  S
C488        C489   1.411       .  A
C488        H493   1.063       .  S
C489        C490   1.428       .  A
C490        F491   1.351       .  S
C495        C496   1.410   1_455  A
C495        C500   1.391       .  A
C495       H1426   1.071       .  S
C496       C1016   1.579       .  S
C496        C497   1.426       .  A
C497        C498   1.408   1_655  A
C497        F504   1.356       .  S
C498        C499   1.409       .  A
C498        H503   1.081       .  S
C499        C500   1.414       .  A
C500       F1425   1.355       .  S
F501       C1424   1.355       .  S
H502       C1419   1.071       .  S
C505        C506   1.425       .  A
C505        C510   1.394       .  A
C505        H512   1.080       .  S
C506        C507   1.414       .  A
C507        C508   1.407       .  A
C507        F514   1.358       .  S
C508        C509   1.410       .  A
C508        H513   1.083       .  S
C509        C510   1.397       .  A
C510        F511   1.358       .  S
C515        C516   1.409       .  A
C515        C520   1.416       .  A
C515        H522   1.081       .  S
C516        C517   1.405       .  A
C517        C518   1.382       .  A
C517        F524   1.360       .  S
C518        C519   1.413       .  A
C518        H523   1.064       .  S
C519        C520   1.441       .  A
C520        F521   1.352   1_455  S
C525        C526   1.409       .  A
C525        C530   1.374       .  A
C525        H532   1.079       .  S
C526        C527   1.429       .  A
C527        C528   1.429       .  A
C527        F534   1.351       .  S
C528        C529   1.422       .  A
C528        H533   1.076       .  S
C529        C530   1.425       .  A
C530        F531   1.358       .  S
C535        C536   1.432       .  A
C535        C540   1.398       .  A
C535        H542   1.076       .  S
C536        C537   1.431       .  A
C537        C538   1.397       .  A
C537        F544   1.346       .  S
C538        C539   1.394       .  A
C538        H543   1.084       .  S
C539        C540   1.393       .  A
C540        F541   1.358       .  S
C545        C546   1.414       .  A
C545        C550   1.375       .  A
C545        H552   1.068       .  S
C546        C547   1.435       .  A
C547        C548   1.415       .  A
C547        F554   1.348       .  S
C548        C549   1.409       .  A
C548        H553   1.080       .  S
C549        C550   1.403       .  A
C550        F551   1.360       .  S
C555        C556   1.411       .  A
C555        C560   1.411   1_655  A
C555        H562   1.082       .  S
C556        C557   1.420       .  A
C557        C558   1.390       .  A
C557        F564   1.357       .  S
C558        C559   1.410   1_655  A
C558        H563   1.070       .  S
C559        C560   1.427       .  A
C560        F561   1.356       .  S
C565        C566   1.407       .  A
C565        C570   1.375       .  A
C565        H572   1.084       .  S
C566        C567   1.420       .  A
C567        C568   1.418       .  A
C567        F574   1.353       .  S
C568        C569   1.417       .  A
C568        H573   1.079       .  S
C569        C570   1.416       .  A
C570        F571   1.357       .  S
C575        C576   1.422       .  A
C575        C580   1.393       .  A
C575        H582   1.083       .  S
C576        C577   1.413       .  A
C577        C578   1.395       .  A
C577        F584   1.353       .  S
C578        C579   1.408       .  A
C578        H583   1.083       .  S
C579        C580   1.396       .  A
C580        F581   1.357       .  S
C585        C586   1.416       .  A
C585        C590   1.395   1_565  A
C585        H592   1.084       .  S
C586        C587   1.405   1_565  A
C587        C588   1.396       .  A
C587        F594   1.356       .  S
C588        C589   1.425       .  A
C588        H593   1.079       .  S
C589        C590   1.410       .  A
C590        F591   1.355       .  S
C595        C596   1.418       .  A
C595        C600   1.398       .  A
C595        H602   1.065   1_565  S
C596        C597   1.424       .  A
C597        C598   1.403       .  A
C597        F604   1.356       .  S
C598        C599   1.414       .  A
C598        H603   1.078       .  S
C599        C600   1.411       .  A
C600        F601   1.359   1_565  S
C605        C606   1.421       .  A
C605        C610   1.401       .  A
C605        H612   1.081       .  S
C606       C1009   1.574       .  S
C606        C607   1.419       .  A
C607        C608   1.402       .  A
C607        F614   1.358       .  S
C608        C609   1.407       .  A
C608        H613   1.083       .  S
C609        C610   1.402       .  A
C610        F611   1.357       .  S
C615        C616   1.413       .  A
C615        C620   1.415       .  A
C615        H622   1.081       .  S
C616        C617   1.416       .  A
C617        C618   1.382       .  A
C617        F624   1.357       .  S
C618        C619   1.407       .  A
C618        H623   1.079       .  S
C619        C620   1.418       .  A
C620        F621   1.356       .  S
C625        C626   1.420       .  A
C625        C630   1.402       .  A
C625        H632   1.074       .  S
C626       C1009   1.594       .  S
C626       C1551   1.428       .  A
C627        C628   1.402   1_545  A
C627       C1550   1.428       .  A
C627        F634   1.355   1_545  S
C628       C1553   1.409   1_554  A
C628        H633   1.083       .  S
C629        C630   1.418   1_565  A
C629       C1552   1.409       .  A
C630        F631   1.355       .  S
C635        C636   1.408       .  A
C635        C640   1.405       .  A
C635        H642   1.083       .  S
C636        C637   1.395       .  A
C637        C638   1.390       .  A
C637        F644   1.358       .  S
C638        C639   1.426       .  A
C638        H643   1.079       .  S
C639        C640   1.417       .  A
C640        F641   1.358       .  S
C645        C646   1.398       .  A
C645        C650   1.390       .  A
C645        H652   1.084       .  S
C646        C647   1.398       .  A
C647        C648   1.390       .  A
C647        F654   1.358       .  S
C648        C649   1.414       .  A
C648        H653   1.083       .  S
C649        C650   1.418       .  A
C650        F651   1.356       .  S
C655        C656   1.416       .  A
C655        C660   1.391       .  A
C655        H662   1.080       .  S
C656        C657   1.416       .  A
C657        C658   1.388       .  A
C657        F664   1.357       .  S
C658        C659   1.397       .  A
C658        H663   1.084       .  S
C659        C660   1.397       .  A
C660        F661   1.358       .  S
C665        C666   1.394       .  A
C665        C670   1.399       .  A
C665        H672   1.083       .  S
C666        C667   1.409       .  A
C667        C668   1.400       .  A
C667        F674   1.358       .  S
C668        C669   1.414       .  A
C668        H673   1.083       .  S
C669        C670   1.435       .  A
C670        F671   1.356       .  S
C675        C676   1.413       .  A
C675        C680   1.398       .  A
C675        H682   1.079       .  S
C676        C677   1.431       .  A
C677        C678   1.402       .  A
C677        F684   1.355       .  S
C678        C679   1.396       .  A
C678        H683   1.083       .  S
C679        C680   1.408       .  A
C680        F681   1.358       .  S
C685        C686   1.398       .  A
C685        C690   1.386       .  A
C685        H692   1.084       .  S
C686        C687   1.397       .  A
C687        C688   1.388       .  A
C687        F694   1.358       .  S
C688        C689   1.416       .  A
C688        H693   1.083       .  S
C689        C690   1.418       .  A
C690        F691   1.356       .  S
C695        C700   1.405       .  A
C695       C1620   1.399       .  A
C695        H702   1.083       .  S
C696        C977   1.484       .  S
C696        C697   1.408       .  A
C696       C1619   1.399       .  A
C697        C698   1.395       .  A
C697        F704   1.358       .  S
C698        C699   1.410       .  A
C698        H703   1.079       .  S
C699       C1624   1.425       .  A
C700       C1623   1.425       .  A
C700        F701   1.357       .  S
C705        C710   1.400       .  A
C705       C1630   1.408       .  A
C705        H712   1.079       .  S
C706        C707   1.423       .  A
C706       C1629   1.408       .  A
C707        C708   1.401       .  A
C707        F714   1.357       .  S
C708        C709   1.397       .  A
C708        H713   1.083       .  S
C709        C973   1.486       .  S
C709       C1634   1.413       .  A
C710       C1633   1.413       .  A
C710        F711   1.358       .  S
C715        C716   1.418       .  A
C715       C1644   1.391       .  A
C715       H1646   1.083       .  S
C716        C717   1.418       .  A
C717        C718   1.386       .  A
C717        F724   1.355       .  S
C718        C719   1.400       .  A
C718        H723   1.084       .  S
C719       C1644   1.398       .  A
C720       C1639   1.391   1_554  A
C720       C1643   1.398   1_554  A
C720        F721   1.357       .  S
H722       C1639   1.083   1_554  S
C725        C726   1.410       .  A
C725        C730   1.386       .  A
C725        H732   1.075       .  S
C726        C727   1.415       .  A
C727        C728   1.393       .  A
C727        F734   1.358       .  S
C728        C729   1.411       .  A
C728        H733   1.083       .  S
C729        C730   1.413       .  A
C730        F731   1.356       .  S
C735        C736   1.397       .  A
C735        C740   1.392       .  A
C735        H742   1.084       .  S
C736        C737   1.395       .  A
C737        C738   1.390       .  A
C737       F1668   1.358       .  S
C738        C739   1.417       .  A
C738       H1667   1.077       .  S
C739        C740   1.419       .  A
C740        F741   1.358       .  S
H743       C1662   1.077       .  S
F744       C1661   1.358   1_554  S
C745        C746   1.393       .  A
C745        C750   1.394       .  A
C745        H752   1.083       .  S
C746        C959   1.486       .  S
C746       C1671   1.412       .  A
C747        C748   1.404   1_554  A
C747       C1670   1.412   1_554  A
C747        F754   1.357       .  S
C748       C1673   1.411       .  A
C748        H753   1.083   1_556  S
C749        C750   1.431       .  A
C749       C1672   1.411       .  A
C750        F751   1.355       .  S
C755        C756   1.394       .  A
C755        C760   1.391       .  A
C755        H762   1.084       .  S
C756        C757   1.397       .  A
C757        C758   1.386       .  A
C757       F1688   1.359       .  S
C758        C759   1.414       .  A
C758        H763   1.078       .  S
C759        C760   1.421       .  A
C760        F761   1.358       .  S
F764       C1681   1.359   1_554  S
C765        C766   1.402       .  A
C765        C770   1.394       .  A
C765        H772   1.084       .  S
C766        C767   1.401       .  A
C767        C768   1.407       .  A
C767        F774   1.357       .  S
C768        C769   1.423       .  A
C768        H773   1.083       .  S
C769        C770   1.421       .  A
C770        F771   1.353       .  S
C775        C776   1.396       .  A
C775        C780   1.396       .  A
C775        H782   1.084       .  S
C776        C777   1.395       .  A
C777        C778   1.388       .  A
C777        F784   1.359       .  S
C778        C779   1.419       .  A
C778        H783   1.076       .  S
C779        C780   1.424       .  A
C780        F781   1.359       .  S
C785        C786   1.429       .  A
C785        C790   1.393       .  A
C785        H792   1.076       .  S
C786       C1075   1.585       .  S
C786       C1711   1.424       .  A
C787        C788   1.406       .  A
C787       C1710   1.424       .  A
C787        F794   1.358       .  S
C788       C1713   1.406   1_554  A
C788        H793   1.083       .  S
C789        C790   1.395       .  A
C789       C1712   1.406       .  A
C790        F791   1.358       .  S
C795        C796   1.395       .  A
C795        C800   1.392       .  A
C795        H802   1.084       .  S
C796       C1721   1.398       .  A
C797        C798   1.385       .  A
C797       C1720   1.398   1_554  A
C797        F804   1.358       .  S
C798        C799   1.413       .  A
C798        H803   1.083       .  S
C799       C1724   1.422   1_554  A
C800       C1723   1.422       .  A
C800        F801   1.355       .  S
C805        C810   1.385       .  A
C805       C1730   1.409       .  A
C805        H812   1.061       .  S
C806       C1009   1.591       .  S
C806        C807   1.434       .  A
C806       C1729   1.409       .  A
C807        C808   1.416       .  A
C807        F814   1.355       .  S
C808        C809   1.410       .  A
C808        H813   1.080       .  S
C809        C928   1.565       .  S
C809       C1734   1.409       .  A
C810       C1733   1.409       .  A
C810        F811   1.358       .  S
C815        C816   1.424       .  A
C815        C820   1.398       .  A
C815        H822   1.082       .  S
C816        C928   1.558       .  S
C816        C817   1.414       .  A
C817        C818   1.396       .  A
C817        F824   1.351       .  S
C818        C819   1.406       .  A
C818        H823   1.083       .  S
C819        C820   1.398       .  A
C820        F821   1.357       .  S
C825        C826   1.412       .  A
C825        C830   1.406       .  A
C825        H832   1.081       .  S
C826        C827   1.416       .  A
C827        C828   1.402       .  A
C827        F834   1.359       .  S
C828        C829   1.418       .  A
C828        H833   1.068       .  S
C829        C830   1.428       .  A
C830        F831   1.358       .  S
C835        C836   1.412       .  A
C835        C840   1.391       .  A
C835        H842   1.077       .  S
C836        C837   1.427       .  A
C837        C838   1.410       .  A
C837        F844   1.358       .  S
C838        C839   1.403       .  A
C838        H843   1.083       .  S
C839        C963   1.493       .  S
C839        C840   1.410       .  A
C840        F841   1.359       .  S
C845        C846   1.410   1_545  A
C845        C850   1.382       .  A
C845        H852   1.083       .  S
C846       C1771   1.433       .  A
C847        C848   1.411   1_566  A
C847       C1770   1.433       .  A
C847        F854   1.349       .  S
C848       C1773   1.405       .  A
C848        H853   1.081       .  S
C849        C928   1.563       .  S
C849        C850   1.421       .  A
C849       C1772   1.405       .  A
C850        F851   1.355       .  S
C855        C856   1.417       .  A
C855        C860   1.397       .  A
C855        H862   1.083       .  S
C856        C857   1.432       .  A
C857        C858   1.397       .  A
C857        F864   1.355       .  S
C858        C859   1.395       .  A
C858        H863   1.084       .  S
C859        C860   1.406       .  A
C860        F861   1.358       .  S
C865        C866   1.417       .  A
C865        C870   1.396       .  A
C865        H872   1.073       .  S
C866        C867   1.422       .  A
C867        C868   1.404       .  A
C867        F874   1.352   1_565  S
C868        C869   1.416       .  A
C868        H873   1.070   1_565  S
C869        C870   1.420       .  A
C870        F871   1.355       .  S
C875        C876   1.417       .  A
C875        C880   1.417       .  A
C875        H882   1.076       .  S
C876        C877   1.419       .  A
C877        C878   1.380       .  A
C877        F884   1.358   1_565  S
C878        C879   1.408       .  A
C878        H883   1.072       .  S
C879        C880   1.429       .  A
C880        F881   1.352       .  S
C885        C886   1.401       .  A
C885        C890   1.407       .  A
C885        H892   1.083       .  S
C886        C887   1.411       .  A
C887        C888   1.397       .  A
C887        F894   1.358       .  S
C888        C889   1.411       .  A
C888        H893   1.078       .  S
C889        C890   1.423       .  A
C890        F891   1.358       .  S
C895        C896   1.417       .  A
C895        C900   1.414       .  A
C895        H902   1.076       .  S
C896        C897   1.417       .  A
C897        C898   1.388       .  A
C897        F904   1.358       .  S
C898        C899   1.411       .  A
C898        H903   1.082       .  S
C899        C900   1.418       .  A
C900        F901   1.355       .  S
C905        C906   1.421       .  A
C905        C910   1.405       .  A
C905        H912   1.078       .  S
C906        C907   1.416       .  A
C907        C908   1.391   1_545  A
C907        F914   1.357       .  S
C908        C909   1.411       .  A
C908        H913   1.083       .  S
C909        C910   1.410   1_565  A
C910        F911   1.356       .  S
C915        C916   1.411       .  A
C915        C920   1.380       .  A
C915        H922   1.078       .  S
C916        C917   1.422       .  A
C917        C918   1.418       .  A
C917        F924   1.357       .  S
C918        C919   1.418       .  A
C918        H923   1.083       .  S
C919        C920   1.421       .  A
C920        F921   1.355       .  S
C925       C1813   1.565       .  S
C925       C1823   1.570       .  S
C925       C1830   1.562       .  S
C925       C1840   1.582       .  S
C926       C1780   1.574       .  S
C926       C1790   1.595       .  S
C926       C1803   1.589       .  S
C926       C1833   1.560       .  S
C927       C1750   1.583       .  S
C927       C1760   1.569       .  S
C927       C1770   1.584       .  S
C927       C1793   1.583       .  S
C928       C1820   1.570       .  S
O929        C932   1.265       .  A
O929       Cd934   2.377       .  S
C930        O939   1.262       .  A
C930        O935   1.266       .  A
C930       C1720   1.453       .  S
O931        C937   1.263   1_554  A
O931       Cd934   2.461   1_554  S
C932        O940   1.271       .  A
C932        C943   1.461       .  S
C933        O938   1.273       .  A
C933        O936   1.258       .  A
C933       C1743   1.481       .  S
Cd934       O941   2.473       .  S
Cd934       O940   2.499       .  S
Cd934       O939   2.383       .  S
Cd934       O935   2.436       .  S
Cd934       O938   2.528       .  S
Cd934       O936   2.380       .  S
C937        O941   1.269       .  A
C937       C1713   1.485       .  S
O942        C945   1.266       .  A
O942       Cd947   2.402       .  S
C943        O952   1.270       .  A
C943        O948   1.261       .  A
O944        C950   1.276       .  A
O944       Cd947   2.556       .  S
C945        O953   1.267       .  A
C945       C1700   1.460       .  S
C946        O951   1.276       .  A
C946        O949   1.260       .  A
C946       C1810   1.493       .  S
Cd947       O954   2.380       .  S
Cd947       O953   2.443       .  S
Cd947       O952   2.518       .  S
Cd947       O948   2.381       .  S
Cd947       O951   2.560       .  S
Cd947       O949   2.402       .  S
C950        O954   1.261       .  A
C950       C1690   1.487       .  S
O955       Cd960   2.376       .  S
C956        O965   1.270       .  A
C956        O961   1.259       .  A
C956        C997   1.451       .  S
C958        O966   1.268       .  A
C958       C1680   1.452       .  S
C959        O962   1.261       .  A
Cd960       O967   2.367       .  S
Cd960       O965   2.496       .  S
Cd960       O961   2.343       .  S
Cd960       O962   2.425       .  S
C963        O967   1.257       .  A
C968       C1640   1.547       .  S
C968       C1650   1.550       .  S
C968       C1663   1.554       .  S
C968       C1683   1.549       .  S
O969        C972   1.265       .  A
O969       Cd974   2.412       .  S
C970        O979   1.265       .  A
C970       C1660   1.455       .  S
C972        O980   1.269       .  A
C972        C983   1.463       .  S
C973        O976   1.257       .  A
Cd974       O981   2.413       .  S
Cd974       O980   2.492       .  S
Cd974       O975   2.431       .  S
Cd974       O976   2.401       .  S
C977        O981   1.258       .  A
O982        C985   1.270       .  A
O982       Cd987   2.420       .  S
C983        O992   1.270       .  A
C983        O988   1.264       .  A
O984        C990   1.256       .  A
O984       Cd987   2.420       .  S
C985        O993   1.266       .  A
C985       C1610   1.457       .  S
C986        O991   1.274       .  A
C986        O989   1.260       .  A
C986       C1603   1.488       .  S
Cd987       O994   2.539       .  S
Cd987       O993   2.362       .  S
Cd987       O992   2.494       .  S
Cd987       O988   2.406       .  S
Cd987       O991   2.530       .  S
Cd987       O989   2.406       .  S
C990        O994   1.273       .  A
C990       C1590   1.485       .  S
C995       C1573   1.543       .  S
C995       C1580   1.545       .  S
C995       C1613   1.539       .  S
C995       C1653   1.545       .  S
O996        C999   1.266       .  A
O996      Cd1001   2.448       .  S
C997       O1006   1.270       .  A
C997       O1002   1.264       .  A
O998       C1004   1.271       .  A
O998      Cd1001   2.489       .  S
C999       O1007   1.262       .  A
C999       C1583   1.455       .  S
C1000      O1005   1.263       .  A
C1000      O1003   1.269       .  A
C1000      C1783   1.481       .  S
Cd1001     O1008   2.437       .  S
Cd1001     O1007   2.380       .  S
Cd1001     O1006   2.479       .  S
Cd1001     O1002   2.349       .  S
Cd1001     O1005   2.433       .  S
Cd1001     O1003   2.479       .  S
C1004      O1008   1.259       .  A
C1004      C1560   1.480       .  S
C1009      C1543   1.562       .  S
C1010      C1523   1.567       .  S
C1010      C1553   1.579       .  S
C1010      C1623   1.560       .  S
C1010      C1753   1.597       .  S
C1011      C1510   1.548       .  S
C1011      C1520   1.590       .  S
C1011      C1593   1.573       .  S
C1011      C1800   1.587       .  S
C1012      C1500   1.552       .  S
C1012      C1513   1.558       .  S
C1012      C1540   1.556       .  S
C1012      C1843   1.579       .  S
C1013      C1460   1.594       .  S
C1013      C1470   1.593       .  S
C1013      C1480   1.577       .  S
C1013      C1490   1.565       .  S
C1014      C1430   1.572       .  S
C1014      C1440   1.566       .  S
C1014      C1450   1.602       .  S
C1014      C1483   1.580       .  S
C1015      C1403   1.583       .  S
C1015      C1410   1.587       .  S
C1015      C1423   1.565       .  S
C1015      C1443   1.598       .  S
C1016      C1473   1.556       .  S
O1017      C1020   1.267       .  A
O1017     Cd1022   2.416       .  S
C1018      O1027   1.270       .  A
C1018      O1023   1.262       .  A
C1018      C1047   1.454       .  S
O1019      C1025   1.275       .  A
O1019     Cd1022   2.517       .  S
C1020      O1028   1.268       .  A
C1020      C1373   1.468       .  S
C1021      O1026   1.261       .  A
C1021      O1024   1.275       .  A
C1021      C1350   1.486       .  S
Cd1022     O1029   2.371       .  S
Cd1022     O1028   2.414       .  S
Cd1022     O1027   2.498       .  S
Cd1022     O1023   2.351       .  S
Cd1022     O1026   2.396       .  S
Cd1022     O1024   2.544       .  S
C1025      O1029   1.261       .  A
C1025      C1360   1.478       .  S
C1030      C1330   1.555       .  S
C1030      C1343   1.549       .  S
C1030      C1370   1.554       .  S
C1030      C1723   1.539       .  S
O1031      C1034   1.264       .  A
O1031     Cd1036   2.423       .  S
C1032      O1041   1.270       .  A
C1032      O1037   1.264       .  A
C1032      C1061   1.452       .  S
O1033      C1039   1.274       .  A
O1033     Cd1036   2.504       .  S
C1034      O1042   1.265   1_556  A
C1034      C1333   1.459   1_556  S
C1035      O1040   1.274       .  A
C1035      O1038   1.264       .  A
C1035      C1533   1.491       .  S
Cd1036     O1043   2.428       .  S
Cd1036     O1042   2.435   1_556  S
Cd1036     O1041   2.480       .  S
Cd1036     O1037   2.357       .  S
Cd1036     O1040   2.516       .  S
Cd1036     O1038   2.441       .  S
C1039      O1043   1.260       .  A
C1039      C1393   1.484       .  S
O1044      C1047   1.260       .  A
O1044     Cd1049   2.350       .  S
C1045      O1054   1.267       .  A
C1045      O1050   1.265       .  A
C1045      C1320   1.454       .  S
O1046      C1052   1.273       .  A
O1046     Cd1049   2.544       .  S
C1047      O1055   1.270       .  A
C1048      O1053   1.273       .  A
C1048      O1051   1.260       .  A
C1048      C1300   1.483       .  S
Cd1049     O1056   2.400       .  S
Cd1049     O1055   2.506       .  S
Cd1049     O1054   2.416       .  S
Cd1049     O1050   2.409       .  S
Cd1049     O1053   2.529       .  S
Cd1049     O1051   2.394       .  S
C1052      O1056   1.258       .  A
C1052      C1310   1.481       .  S
C1057      C1290   1.543       .  S
C1057      C1323   1.566       .  S
C1057      C1340   1.569       .  S
C1057      C1703   1.569       .  S
O1058      C1061   1.264       .  A
O1058     Cd1063   2.348       .  S
C1059      O1068   1.263       .  A
C1059      O1064   1.267       .  A
C1059      C1293   1.463       .  S
O1060      C1066   1.266       .  A
O1060     Cd1063   2.450       .  S
C1061      O1069   1.272       .  A
C1062      O1067   1.275       .  A
C1062      O1065   1.259       .  A
C1062      C1503   1.475       .  S
Cd1063     O1070   2.457       .  S
Cd1063     O1069   2.475       .  S
Cd1063     O1068   2.396       .  S
Cd1063     O1064   2.415       .  S
Cd1063     O1067   2.502       .  S
Cd1063     O1065   2.360       .  S
C1066      O1070   1.264       .  A
C1066      C1463   1.475       .  S
C1071      C1270   1.553       .  S
C1071      C1283   1.585       .  S
C1071      C1413   1.602       .  S
C1071      C1673   1.574       .  S
C1072      C1263   1.593       .  S
C1073      C1250   1.568       .  S
C1073      C1260   1.569       .  S
C1073      C1303   1.569       .  S
C1073      C1493   1.565       .  S
C1074      C1253   1.576       .  S
C1074      C1273   1.552       .  S
C1074      C1453   1.604       .  S
C1074      C1563   1.567       .  S
C1075      C1223   1.577       .  S
C1076      C1200   1.572       .  S
C1077      C1173   1.552       .  S
C1077      C1180   1.564       .  S
C1077      C1190   1.585       .  S
C1077      C1230   1.555       .  S
C1078      C1160   1.568       .  S
C1078      C1193   1.580       .  S
C1078      C1213   1.562       .  S
C1078      C1630   1.555       .  S
C1079      C1140   1.570       .  S
C1079      C1150   1.579       .  S
C1079      C1220   1.578       .  S
C1079      C1693   1.572       .  S
C1080      C1130   1.559       .  S
C1080      C1153   1.576       .  S
C1080      C1203   1.575       .  S
C1080      C1313   1.562       .  S
C1081      C1113   1.578       .  S
C1081      C1120   1.580       .  S
C1081      C1143   1.573       .  S
C1081      C1183   1.566       .  S
C1082      C1123   1.611       .  S
C1082      C1133   1.592       .  S
C1082      C1163   1.577       .  S
C1082      C1600   1.575       .  S
O1083      C1086   1.263       .  A
O1083     Cd1088   2.383       .  S
C1084      O1093   1.265       .  A
C1084      O1089   1.265       .  A
C1084      C1570   1.457       .  S
O1085      C1091   1.273       .  A
O1085     Cd1088   2.505       .  S
C1086      O1094   1.270       .  A
C1086      C1099   1.456       .  S
C1087      O1092   1.270       .  A
C1087      O1090   1.261       .  A
C1087      C1110   1.487       .  S
Cd1088     O1095   2.442       .  S
Cd1088     O1094   2.478       .  S
Cd1088     O1093   2.425       .  S
Cd1088     O1089   2.405       .  S
Cd1088     O1092   2.535       .  S
Cd1088     O1090   2.430       .  S
C1091      O1095   1.260       .  A
C1091      C1433   1.487       .  S
O1096      C1099   1.267       .  A
O1096     Cd1101   2.382       .  S
C1097      O1106   1.263       .  A
C1097      C1643   1.462       .  S
C1099      O1107   1.270       .  A
C1100      O1103   1.267       .  A
C1100      C1400   1.477       .  S
Cd1101     O1108   2.392       .  S
Cd1101     O1107   2.462       .  S
Cd1101     O1102   2.452       .  S
Cd1101     O1103   2.515       .  S
C1104      O1108   1.260       .  A
C1104      C1170   1.479       .  S
C1109      C1110   1.401       .  A
C1109      C1114   1.398       .  A
C1109      H1116   1.084       .  S
C1110      C1111   1.398       .  A
C1111      C1112   1.406       .  A
C1111      F1118   1.357       .  S
C1112      C1113   1.428       .  A
C1112      H1117   1.081       .  S
C1113      C1114   1.423       .  A
C1114      F1115   1.349       .  S
C1119      C1120   1.408       .  A
C1119      C1124   1.396       .  A
C1119      H1126   1.077       .  S
C1120      C1121   1.412       .  A
C1121      C1122   1.421       .  A
C1121      F1128   1.355       .  S
C1122      C1123   1.432       .  A
C1122      H1127   1.069       .  S
C1123      C1124   1.423       .  A
C1124      F1125   1.347       .  S
C1129      C1130   1.399       .  A
C1129      C1134   1.405       .  A
C1129      H1136   1.080       .  S
C1130      C1131   1.417       .  A
C1131      C1132   1.396       .  A
C1131      F1138   1.357       .  S
C1132      C1133   1.414       .  A
C1132      H1137   1.071       .  S
C1133      C1134   1.437       .  A
C1134      F1135   1.350       .  S
C1139      C1140   1.418       .  A
C1139      C1144   1.402       .  A
C1139      H1146   1.082       .  S
C1140      C1141   1.413       .  A
C1141      C1142   1.401       .  A
C1141      F1148   1.354       .  S
C1142      C1143   1.418       .  A
C1142      H1147   1.082       .  S
C1143      C1144   1.420       .  A
C1144      F1145   1.354       .  S
C1149      C1150   1.410       .  A
C1149      C1154   1.382       .  A
C1149      H1156   1.075       .  S
C1150      C1151   1.421       .  A
C1151      C1152   1.413       .  A
C1151      F1158   1.358       .  S
C1152      C1153   1.418       .  A
C1152      H1157   1.083       .  S
C1153      C1154   1.423       .  A
C1154      F1155   1.352       .  S
C1159      C1160   1.414       .  A
C1159      C1164   1.395       .  A
C1159      H1166   1.083       .  S
C1160      C1161   1.415       .  A
C1161      C1162   1.414       .  A
C1161      F1168   1.356       .  S
C1162      C1163   1.420       .  A
C1162      H1167   1.080       .  S
C1163      C1164   1.414       .  A
C1164      F1165   1.358       .  S
C1169      C1170   1.395       .  A
C1169      C1174   1.395       .  A
C1169      H1176   1.083       .  S
C1171      C1172   1.398       .  A
C1171      F1178   1.358       .  S
C1172      C1173   1.407       .  A
C1172      H1177   1.078       .  S
C1174      F1175   1.357       .  S
C1179      C1180   1.406       .  A
C1179      C1184   1.381       .  A
C1179      H1186   1.084       .  S
C1180      C1181   1.415       .  A
C1181      C1182   1.419       .  A
C1181      F1188   1.356       .  S
C1182      C1183   1.420       .  A
C1182      H1187   1.081       .  S
C1183      C1184   1.418       .  A
C1184      F1185   1.353       .  S
C1189      C1190   1.410       .  A
C1189      C1194   1.379       .  A
C1189      H1196   1.081       .  S
C1190      C1191   1.419       .  A
C1191      C1192   1.423       .  A
C1192      C1193   1.422       .  A
C1193      C1194   1.418       .  A
C1194      F1195   1.352       .  S
C1199      C1200   1.418       .  A
C1199      C1204   1.412       .  A
C1199      H1206   1.080       .  S
C1200      C1201   1.420       .  A
C1201      C1202   1.390       .  A
C1201      F1208   1.356       .  S
C1202      C1203   1.415       .  A
C1202      H1207   1.079       .  S
C1203      C1204   1.417       .  A
C1204      F1205   1.357       .  S
C1209      C1210   1.415   1_556  A
C1209      C1214   1.389       .  A
C1209      H1216   1.081       .  S
C1210      C1211   1.409       .  A
C1211      C1212   1.409   1_554  A
C1212      C1213   1.426       .  A
C1213      C1214   1.410       .  A
C1214      F1215   1.353       .  S
C1219      C1220   1.417       .  A
C1219      C1224   1.402       .  A
C1219      H1226   1.071       .  S
C1220      C1221   1.421       .  A
C1221      C1222   1.397       .  A
C1221      F1228   1.358       .  S
C1222      C1223   1.414       .  A
C1222      H1227   1.074       .  S
C1223      C1224   1.417       .  A
C1224      F1225   1.357       .  S
C1229      C1234   1.399       .  A
C1229      H1236   1.079       .  S
C1230      C1231   1.409       .  A
C1231      C1232   1.393       .  A
C1231      F1238   1.355       .  S
C1232      C1233   1.419   1_556  A
C1232      H1237   1.084       .  S
C1234      F1235   1.356       .  S
C1239      C1244   1.378       .  A
C1239      H1246   1.081       .  S
C1240      C1241   1.424       .  A
C1241      C1242   1.417       .  A
C1241      F1248   1.347       .  S
C1242      C1243   1.415       .  A
C1242      H1247   1.082       .  S
C1244      F1245   1.356       .  S
C1249      C1250   1.410       .  A
C1249      C1254   1.419   1_655  A
C1249      H1256   1.082       .  S
C1250      C1251   1.422       .  A
C1251      C1252   1.376   1_655  A
C1251      F1258   1.354       .  S
C1252      C1253   1.397       .  A
C1252      H1257   1.065       .  S
C1253      C1254   1.431       .  A
C1254      F1255   1.356       .  S
C1259      C1260   1.411       .  A
C1259      C1264   1.418       .  A
C1259      H1266   1.078       .  S
C1260      C1261   1.410       .  A
C1261      C1262   1.383       .  A
C1261      F1268   1.359       .  S
C1262      C1263   1.412       .  A
C1262      H1267   1.068       .  S
C1263      C1264   1.437       .  A
C1264      F1265   1.354   1_655  S
C1269      C1270   1.409       .  A
C1269      C1274   1.382       .  A
C1269      H1276   1.083       .  S
C1270      C1271   1.418       .  A
C1271      C1272   1.409       .  A
C1271      F1278   1.356       .  S
C1272      C1273   1.413       .  A
C1272      H1277   1.081       .  S
C1273      C1274   1.414       .  A
C1274      F1275   1.359       .  S
C1279      C1280   1.410   1_556  A
C1279      C1284   1.392       .  A
C1279      H1286   1.079       .  S
C1280      C1281   1.410       .  A
C1281      C1282   1.409   1_654  A
C1281      F1288   1.357       .  S
C1282      C1283   1.425       .  A
C1282      H1287   1.079       .  S
C1283      C1284   1.419   1_455  A
C1284      F1285   1.353       .  S
C1289      C1290   1.412       .  A
C1289      C1294   1.389       .  A
C1289      H1296   1.080       .  S
C1290      C1291   1.419       .  A
C1291      C1292   1.387       .  A
C1291      F1298   1.359       .  S
C1292      C1293   1.398       .  A
C1292      H1297   1.083       .  S
C1293      C1294   1.404       .  A
C1294      F1295   1.358       .  S
C1299      C1300   1.403       .  A
C1299      C1304   1.395       .  A
C1299      H1306   1.083       .  S
C1300      C1301   1.398       .  A
C1301      C1302   1.402       .  A
C1301      F1308   1.357       .  S
C1302      C1303   1.426       .  A
C1302      H1307   1.081       .  S
C1303      C1304   1.417       .  A
C1304      F1305   1.348       .  S
C1309      C1310   1.407       .  A
C1309      C1314   1.399       .  A
C1309      H1316   1.084       .  S
C1310      C1311   1.397       .  A
C1311      C1312   1.400       .  A
C1311      F1318   1.357       .  S
C1312      C1313   1.424       .  A
C1312      H1317   1.083       .  S
C1313      C1314   1.414       .  A
C1314      F1315   1.354       .  S
C1319      C1320   1.390       .  A
C1319      C1324   1.388       .  A
C1319      H1326   1.084       .  S
C1320      C1321   1.395       .  A
C1321      C1322   1.390       .  A
C1321      F1328   1.358       .  S
C1322      C1323   1.419       .  A
C1322      H1327   1.072       .  S
C1323      C1324   1.430       .  A
C1324      F1325   1.359       .  S
C1329      C1330   1.419       .  A
C1329      C1334   1.388       .  A
C1329      H1336   1.080       .  S
C1331      C1332   1.395   1_554  A
C1331      F1338   1.353   1_554  S
C1332      C1333   1.396   1_556  A
C1332      H1337   1.084       .  S
C1334      F1335   1.358       .  S
C1339      C1340   1.417       .  A
C1339      C1344   1.389       .  A
C1339      H1346   1.081       .  S
C1340      C1341   1.423       .  A
C1341      C1342   1.391       .  A
C1341      F1348   1.344       .  S
C1342      C1343   1.402       .  A
C1342      H1347   1.084       .  S
C1343      C1344   1.415       .  A
C1344      F1345   1.357       .  S
C1349      C1354   1.396       .  A
C1349      H1356   1.084       .  S
C1350      C1351   1.400       .  A
C1351      C1352   1.405   1_556  A
C1351      F1358   1.357       .  S
C1352      C1353   1.423       .  A
C1352      H1357   1.079       .  S
C1354      F1355   1.357       .  S
C1359      C1360   1.397   1_554  A
C1359      C1364   1.401       .  A
C1359      H1366   1.083       .  S
C1360      C1361   1.409       .  A
C1361      C1362   1.393       .  A
C1361      F1368   1.358       .  S
C1362      C1363   1.408   1_556  A
C1362      H1367   1.078       .  S
C1363      C1364   1.424       .  A
C1364      F1365   1.358       .  S
C1369      C1374   1.392       .  A
C1369      H1376   1.083       .  S
C1370      C1371   1.422       .  A
C1371      C1372   1.391       .  A
C1371      F1378   1.356       .  S
C1372      H1377   1.084       .  S
C1373      C1374   1.402       .  A
C1374      F1375   1.357       .  S
C1379      C1380   1.421       .  A
C1379      C1384   1.417       .  A
C1379      H1386   1.079   1_554  S
C1381      C1382   1.384       .  A
C1381      F1388   1.345       .  S
C1382      H1387   1.074       .  S
C1383      C1384   1.428       .  A
C1384      F1385   1.348   1_554  S
C1389      C1390   1.412   1_556  A
C1389      C1394   1.404       .  A
C1389      H1396   1.083       .  S
C1391      F1398   1.357       .  S
C1392      C1393   1.393   1_554  A
C1393      C1394   1.410       .  A
C1394      F1395   1.357       .  S
C1399      C1404   1.396       .  A
C1399      H1406   1.084       .  S
C1400      C1401   1.394       .  A
C1401      C1402   1.401       .  A
C1401      F1408   1.357       .  S
C1402      H1407   1.077       .  S
C1403      C1404   1.429       .  A
C1404      F1405   1.357       .  S
C1409      C1410   1.420       .  A
C1409      C1414   1.419       .  A
C1409      H1416   1.077       .  S
C1410      C1411   1.409       .  A
C1411      C1412   1.389       .  A
C1411      F1418   1.349       .  S
C1412      C1413   1.411       .  A
C1412      H1417   1.063       .  S
C1413      C1414   1.428       .  A
C1414      F1415   1.351       .  S
C1419      C1420   1.410   1_455  A
C1419      C1424   1.391       .  A
C1420      C1421   1.426   1_554  A
C1421      C1422   1.408   1_655  A
C1421      F1428   1.356       .  S
C1422      C1423   1.409       .  A
C1422      H1427   1.081       .  S
C1423      C1424   1.414   1_556  A
C1429      C1430   1.425       .  A
C1429      C1434   1.394       .  A
C1429      H1436   1.080       .  S
C1430      C1431   1.414       .  A
C1431      C1432   1.407       .  A
C1431      F1438   1.358       .  S
C1432      C1433   1.410       .  A
C1432      H1437   1.083       .  S
C1433      C1434   1.397       .  A
C1434      F1435   1.358       .  S
C1439      C1440   1.409       .  A
C1439      C1444   1.416       .  A
C1439      H1446   1.081       .  S
C1440      C1441   1.405       .  A
C1441      C1442   1.382       .  A
C1441      F1448   1.360       .  S
C1442      C1443   1.413       .  A
C1442      H1447   1.064       .  S
C1443      C1444   1.441       .  A
C1444      F1445   1.352   1_455  S
C1449      C1450   1.409       .  A
C1449      C1454   1.374       .  A
C1449      H1456   1.079       .  S
C1450      C1451   1.429       .  A
C1451      C1452   1.429       .  A
C1451      F1458   1.351       .  S
C1452      C1453   1.422       .  A
C1452      H1457   1.076       .  S
C1453      C1454   1.425       .  A
C1454      F1455   1.358       .  S
C1459      C1460   1.432       .  A
C1459      C1464   1.398       .  A
C1459      H1466   1.076       .  S
C1460      C1461   1.431       .  A
C1461      C1462   1.397       .  A
C1461      F1468   1.346       .  S
C1462      C1463   1.394       .  A
C1462      H1467   1.084       .  S
C1463      C1464   1.393       .  A
C1464      F1465   1.358       .  S
C1469      C1470   1.414       .  A
C1469      C1474   1.375       .  A
C1469      H1476   1.068       .  S
C1470      C1471   1.435       .  A
C1471      C1472   1.415       .  A
C1471      F1478   1.348       .  S
C1472      C1473   1.409       .  A
C1472      H1477   1.080       .  S
C1473      C1474   1.403       .  A
C1474      F1475   1.360       .  S
C1479      C1480   1.411       .  A
C1479      C1484   1.411   1_655  A
C1479      H1486   1.082       .  S
C1480      C1481   1.420       .  A
C1481      C1482   1.390       .  A
C1481      F1488   1.357       .  S
C1482      C1483   1.410   1_655  A
C1482      H1487   1.070       .  S
C1483      C1484   1.427       .  A
C1484      F1485   1.356       .  S
C1489      C1490   1.407       .  A
C1489      C1494   1.375       .  A
C1489      H1496   1.084       .  S
C1490      C1491   1.420       .  A
C1491      C1492   1.418       .  A
C1491      F1498   1.353       .  S
C1492      C1493   1.417       .  A
C1492      H1497   1.079       .  S
C1493      C1494   1.416       .  A
C1494      F1495   1.357       .  S
C1499      C1500   1.422       .  A
C1499      C1504   1.393       .  A
C1499      H1506   1.083       .  S
C1500      C1501   1.413       .  A
C1501      C1502   1.395       .  A
C1501      F1508   1.353       .  S
C1502      C1503   1.408       .  A
C1502      H1507   1.083       .  S
C1503      C1504   1.396       .  A
C1504      F1505   1.357       .  S
C1509      C1510   1.416       .  A
C1509      C1514   1.395   1_565  A
C1509      H1516   1.084       .  S
C1510      C1511   1.405   1_565  A
C1511      C1512   1.396       .  A
C1511      F1518   1.356       .  S
C1512      C1513   1.425       .  A
C1512      H1517   1.079       .  S
C1513      C1514   1.410       .  A
C1514      F1515   1.355       .  S
C1519      C1520   1.418       .  A
C1519      C1524   1.398       .  A
C1519      H1526   1.065   1_565  S
C1520      C1521   1.424       .  A
C1521      C1522   1.403       .  A
C1521      F1528   1.356       .  S
C1522      C1523   1.414       .  A
C1522      H1527   1.078       .  S
C1523      C1524   1.411       .  A
C1524      F1525   1.359   1_565  S
C1529      C1530   1.421       .  A
C1529      C1534   1.401       .  A
C1529      H1536   1.081       .  S
C1530      C1531   1.419   1_554  A
C1531      C1532   1.402       .  A
C1531      F1538   1.358       .  S
C1532      C1533   1.407       .  A
C1532      H1537   1.083       .  S
C1533      C1534   1.402   1_556  A
C1534      F1535   1.357       .  S
C1539      C1540   1.413       .  A
C1539      C1544   1.415       .  A
C1539      H1546   1.081       .  S
C1540      C1541   1.416       .  A
C1541      C1542   1.382       .  A
C1541      F1548   1.357       .  S
C1542      C1543   1.407       .  A
C1542      H1547   1.079       .  S
C1543      C1544   1.418       .  A
C1544      F1545   1.356       .  S
C1549      C1550   1.420   1_556  A
C1549      C1554   1.402       .  A
C1549      H1556   1.074       .  S
C1551      C1552   1.402   1_545  A
C1551      F1558   1.355   1_545  S
C1552      H1557   1.083       .  S
C1553      C1554   1.418   1_565  A
C1554      F1555   1.355       .  S
C1559      C1560   1.408       .  A
C1559      C1564   1.405       .  A
C1559      H1566   1.083       .  S
C1560      C1561   1.395       .  A
C1561      C1562   1.390       .  A
C1561      F1568   1.358       .  S
C1562      C1563   1.426       .  A
C1562      H1567   1.079       .  S
C1563      C1564   1.417       .  A
C1564      F1565   1.358       .  S
C1569      C1570   1.398       .  A
C1569      C1574   1.390       .  A
C1569      H1576   1.084       .  S
C1570      C1571   1.398       .  A
C1571      C1572   1.390       .  A
C1571      F1578   1.358       .  S
C1572      C1573   1.414       .  A
C1572      H1577   1.083       .  S
C1573      C1574   1.418       .  A
C1574      F1575   1.356       .  S
C1579      C1580   1.416       .  A
C1579      C1584   1.391       .  A
C1579      H1586   1.080       .  S
C1580      C1581   1.416       .  A
C1581      C1582   1.388       .  A
C1581      F1588   1.357       .  S
C1582      C1583   1.397       .  A
C1582      H1587   1.084       .  S
C1583      C1584   1.397       .  A
C1584      F1585   1.358       .  S
C1589      C1590   1.394       .  A
C1589      C1594   1.399       .  A
C1589      H1596   1.083       .  S
C1590      C1591   1.409       .  A
C1591      C1592   1.400       .  A
C1591      F1598   1.358       .  S
C1592      C1593   1.414       .  A
C1592      H1597   1.083       .  S
C1593      C1594   1.435       .  A
C1594      F1595   1.356       .  S
C1599      C1600   1.413       .  A
C1599      C1604   1.398       .  A
C1599      H1606   1.079       .  S
C1600      C1601   1.431       .  A
C1601      C1602   1.402       .  A
C1601      F1608   1.355       .  S
C1602      C1603   1.396       .  A
C1602      H1607   1.083       .  S
C1603      C1604   1.408       .  A
C1604      F1605   1.358       .  S
C1609      C1610   1.398       .  A
C1609      C1614   1.386       .  A
C1609      H1616   1.084       .  S
C1610      C1611   1.397       .  A
C1611      C1612   1.388       .  A
C1611      F1618   1.358       .  S
C1612      C1613   1.416       .  A
C1612      H1617   1.083       .  S
C1613      C1614   1.418       .  A
C1614      F1615   1.356       .  S
C1619      C1624   1.405       .  A
C1619      H1626   1.083       .  S
C1620      C1621   1.408       .  A
C1621      C1622   1.395       .  A
C1621      F1628   1.358       .  S
C1622      C1623   1.410       .  A
C1622      H1627   1.079       .  S
C1624      F1625   1.357       .  S
C1629      C1634   1.400       .  A
C1629      H1636   1.079       .  S
C1630      C1631   1.423       .  A
C1631      C1632   1.401       .  A
C1631      F1638   1.357       .  S
C1632      C1633   1.397       .  A
C1632      H1637   1.083       .  S
C1634      F1635   1.358       .  S
C1639      C1640   1.418       .  A
C1640      C1641   1.418       .  A
C1641      C1642   1.386       .  A
C1641      F1648   1.355       .  S
C1642      C1643   1.400       .  A
C1642      H1647   1.084       .  S
C1644      F1645   1.357       .  S
C1649      C1650   1.410       .  A
C1649      C1654   1.386       .  A
C1649      H1656   1.075       .  S
C1650      C1651   1.415       .  A
C1651      C1652   1.393       .  A
C1651      F1658   1.358       .  S
C1652      C1653   1.411       .  A
C1652      H1657   1.083       .  S
C1653      C1654   1.413       .  A
C1654      F1655   1.356       .  S
C1659      C1660   1.397       .  A
C1659      C1664   1.392       .  A
C1659      H1666   1.084       .  S
C1660      C1661   1.395       .  A
C1661      C1662   1.390       .  A
C1662      C1663   1.417       .  A
C1663      C1664   1.419       .  A
C1664      F1665   1.358       .  S
C1669      C1670   1.393       .  A
C1669      C1674   1.394       .  A
C1669      H1676   1.083       .  S
C1671      C1672   1.404       .  A
C1671      F1678   1.357       .  S
C1672      H1677   1.083       .  S
C1673      C1674   1.431       .  A
C1674      F1675   1.355       .  S
C1679      C1680   1.394       .  A
C1679      C1684   1.391       .  A
C1679      H1686   1.084       .  S
C1680      C1681   1.398       .  A
C1681      C1682   1.386       .  A
C1682      C1683   1.414       .  A
C1682      H1687   1.078       .  S
C1683      C1684   1.421       .  A
C1684      F1685   1.358       .  S
C1689      C1690   1.402       .  A
C1689      C1694   1.394       .  A
C1689      H1696   1.084       .  S
C1690      C1691   1.401       .  A
C1691      C1692   1.407       .  A
C1691      F1698   1.357       .  S
C1692      C1693   1.423       .  A
C1692      H1697   1.083       .  S
C1693      C1694   1.421       .  A
C1694      F1695   1.353       .  S
C1699      C1700   1.396       .  A
C1699      C1704   1.396       .  A
C1699      H1706   1.084       .  S
C1700      C1701   1.395       .  A
C1701      C1702   1.388       .  A
C1701      F1708   1.359       .  S
C1702      C1703   1.419       .  A
C1702      H1707   1.076       .  S
C1703      C1704   1.424       .  A
C1704      F1705   1.359       .  S
C1709      C1710   1.429   1_556  A
C1709      C1714   1.393       .  A
C1709      H1716   1.076       .  S
C1711      C1712   1.406       .  A
C1711      F1718   1.358       .  S
C1712      H1717   1.083       .  S
C1713      C1714   1.395       .  A
C1714      F1715   1.358       .  S
C1719      C1720   1.395       .  A
C1719      C1724   1.392       .  A
C1719      H1726   1.084       .  S
C1721      C1722   1.385       .  A
C1721      F1728   1.358       .  S
C1722      C1723   1.413       .  A
C1722      H1727   1.083       .  S
C1724      F1725   1.355       .  S
C1729      C1734   1.385       .  A
C1729      H1736   1.061       .  S
C1730      C1731   1.434       .  A
C1731      C1732   1.416       .  A
C1731      F1738   1.355       .  S
C1732      C1733   1.410       .  A
C1732      H1737   1.080       .  S
C1734      F1735   1.358       .  S
C1739      C1740   1.424       .  A
C1739      C1744   1.398       .  A
C1739      H1746   1.082       .  S
C1740      C1741   1.414   1_554  A
C1741      C1742   1.396       .  A
C1741      F1748   1.351       .  S
C1742      C1743   1.406       .  A
C1742      H1747   1.083       .  S
C1743      C1744   1.398   1_556  A
C1744      F1745   1.357       .  S
C1749      C1750   1.412       .  A
C1749      C1754   1.406       .  A
C1749      H1756   1.081       .  S
C1750      C1751   1.416       .  A
C1751      C1752   1.402       .  A
C1751      F1758   1.359   1_556  S
C1752      C1753   1.418       .  A
C1752      H1757   1.068       .  S
C1753      C1754   1.428       .  A
C1754      F1755   1.358       .  S
C1759      C1760   1.412       .  A
C1759      C1764   1.391       .  A
C1759      H1766   1.077       .  S
C1760      C1761   1.427       .  A
C1761      C1762   1.410       .  A
C1761      F1768   1.358       .  S
C1762      C1763   1.403       .  A
C1762      H1767   1.083       .  S
C1763      C1764   1.410       .  A
C1764      F1765   1.359       .  S
C1769      C1770   1.410   1_545  A
C1769      C1774   1.382       .  A
C1769      H1776   1.083       .  S
C1771      C1772   1.411   1_565  A
C1771      F1778   1.349       .  S
C1772      H1777   1.081       .  S
C1773      C1774   1.421   1_554  A
C1774      F1775   1.355       .  S
C1779      C1780   1.417       .  A
C1779      C1784   1.397       .  A
C1779      H1786   1.083       .  S
C1780      C1781   1.432       .  A
C1781      C1782   1.397       .  A
C1781      F1788   1.355       .  S
C1782      C1783   1.395       .  A
C1782      H1787   1.084       .  S
C1783      C1784   1.406       .  A
C1784      F1785   1.358       .  S
C1789      C1790   1.417       .  A
C1789      C1794   1.396       .  A
C1789      H1796   1.073       .  S
C1790      C1791   1.422       .  A
C1791      C1792   1.404       .  A
C1791      F1798   1.352   1_565  S
C1792      C1793   1.416       .  A
C1792      H1797   1.070   1_565  S
C1793      C1794   1.420       .  A
C1794      F1795   1.355       .  S
C1799      C1800   1.417       .  A
C1799      C1804   1.417       .  A
C1799      H1806   1.076       .  S
C1800      C1801   1.419       .  A
C1801      C1802   1.380       .  A
C1801      F1808   1.358   1_565  S
C1802      C1803   1.408       .  A
C1802      H1807   1.072       .  S
C1803      C1804   1.429       .  A
C1804      F1805   1.352       .  S
C1809      C1810   1.401       .  A
C1809      C1814   1.407       .  A
C1809      H1816   1.083       .  S
C1810      C1811   1.411       .  A
C1811      C1812   1.397       .  A
C1811      F1818   1.358       .  S
C1812      C1813   1.411       .  A
C1812      H1817   1.078       .  S
C1813      C1814   1.423       .  A
C1814      F1815   1.358       .  S
C1819      C1820   1.417       .  A
C1819      C1824   1.414       .  A
C1819      H1826   1.076       .  S
C1820      C1821   1.417       .  A
C1821      C1822   1.388       .  A
C1821      F1828   1.358       .  S
C1822      C1823   1.411       .  A
C1822      H1827   1.082       .  S
C1823      C1824   1.418       .  A
C1824      F1825   1.355       .  S
C1829      C1830   1.421       .  A
C1829      C1834   1.405       .  A
C1829      H1836   1.078       .  S
C1830      C1831   1.416       .  A
C1831      C1832   1.391   1_545  A
C1831      F1838   1.356       .  S
C1832      C1833   1.411       .  A
C1832      H1837   1.083       .  S
C1833      C1834   1.410   1_565  A
C1834      F1835   1.356       .  S
C1839      C1840   1.411       .  A
C1839      C1844   1.380       .  A
C1839      H1846   1.078       .  S
C1840      C1841   1.422       .  A
C1841      C1842   1.418       .  A
C1841      F1848   1.357       .  S
C1842      C1843   1.418       .  A
C1842      H1847   1.083       .  S
C1843      C1844   1.421       .  A
C1844      F1845   1.355       .  S
