geometry optimzed in LAMMPS
_audit_creation_date              2020-11-30 
_audit_creation_method            'lammps2cif' 
_symmetry_space_group_name_H-M    'P1' 
_symmetry_Int_Tables_number       1 
_symmetry_cell_setting            triclinic 
loop_ 
_symmetry_equiv_pos_as_xyz 
  x,y,z 
_cell_length_a                    35.22063228 
_cell_length_b                    34.54503675450273 
_cell_length_c                    35.114379110481615 
_cell_angle_alpha                 90.29578345901727 
_cell_angle_beta                  90.24771235498397 
_cell_angle_gamma                 90.16387886568945 
loop_ 
_atom_site_label 
_atom_site_type_symbol 
_atom_site_fract_x 
_atom_site_fract_y 
_atom_site_fract_z 
_atom_site_charge 
O1          O  0.54693606  0.48230183  0.42588042    -0.77700
C2          C  0.43096143  0.53305574  0.42837547     0.83400
O3          O  0.55512546  0.55677780  0.48206539    -0.78800
O4          O  0.42445169  0.52155943  0.54479989    -0.80300
O5          O  0.48143757  0.41397653  0.53648986    -0.80100
O6          O  0.53325863  0.42252348  0.44379820    -0.78700
Zn7        Zn  0.49919866  0.50863890  0.44300341     1.55700
O8          O  0.42340823  0.43877705  0.52920757    -0.80100
Cd9        Cd  0.51120918  0.44228387  0.49398864     1.59700
Cd10       Cd  0.51802738  0.52964016  0.52504277     1.59600
O11         O  0.56134567  0.45057975  0.51790534    -0.80100
O12         O  0.49028724  0.49347189  0.49198080    -1.90600
Cd13       Cd  0.43674625  0.48936785  0.50065154     1.59900
O14         O  0.54081826  0.48709802  0.56389118    -0.80000
O15         O  0.41465090  0.52672997  0.45994935    -0.78700
C16         C  0.54243070  0.56733732  0.44909897     0.83800
C17         C  0.55520876  0.44674264  0.42744910     0.83500
O18         O  0.45252654  0.50714436  0.41437224    -0.77600
C19         C  0.44740678  0.41828101  0.54773236     0.84300
O20         O  0.50802154  0.56286562  0.44201917    -0.77700
C21         C  0.55571955  0.45507428  0.55272285     0.84400
C22         C  0.43768904  0.55334171  0.55638111     0.84800
O23         O  0.47248024  0.56354030  0.55014197    -0.80200
O24         O  0.46706035  0.17529659  0.19849465    -0.77700
C25         C  0.55429091  0.17659727  0.30237115     0.83400
O26         O  0.46044956  0.23442259  0.31815571    -0.78800
O27         O  0.56317559  0.27141320  0.30893354    -0.80300
O28         O  0.55271746  0.26884036  0.17115330    -0.80100
O29         O  0.45712910  0.23310993  0.17239128    -0.78700
Zn30       Zn  0.48830503  0.19540793  0.24829616     1.55700
O31         O  0.58380535  0.28969220  0.22178682    -0.80100
Cd32       Cd  0.50177714  0.26353687  0.19539341     1.59700
Cd33       Cd  0.47916679  0.27891759  0.27924090     1.59600
O34         O  0.48447862  0.31815779  0.20106509    -0.80100
O35         O  0.50793011  0.24469985  0.24540705    -1.90600
Cd36       Cd  0.56124270  0.24656736  0.25822158     1.59900
O37         O  0.43844560  0.29975576  0.23774772    -0.80000
O38         O  0.57809228  0.19546924  0.28204107    -0.78700
C39         C  0.44457612  0.20307651  0.30596741     0.83800
C40         C  0.44735113  0.19813534  0.17764020     0.83500
O41         O  0.52002921  0.17159650  0.29144092    -0.77600
C42         C  0.57319341  0.29449022  0.18726609     0.84300
O43         O  0.43911200  0.19958457  0.27095010    -0.77700
C44         C  0.44947120  0.31378510  0.20577425     0.84400
C45         C  0.55745757  0.30694732  0.30672654     0.84800
O46         O  0.52420801  0.31844420  0.29653992    -0.80200
C47         C  0.80221283  0.80453499  0.76674493     0.04000
C48         C  0.76791901  0.81842393  0.78239398    -0.12200
C49         C  0.75066037  0.79991839  0.81368792     0.01500
C50         C  0.76785099  0.76647750  0.82883734    -0.10700
C51         C  0.80236049  0.75206345  0.81422605     0.03900
C52         C  0.81928384  0.77136546  0.78305382    -0.10100
H53         H  0.75582704  0.84504360  0.77164303     0.09500
H54         H  0.75583778  0.75331405  0.85402716     0.07100
H55         H  0.84640948  0.76145795  0.77241487     0.06900
C56         C  0.75542499  0.94804850  0.95089945     0.04000
C57         C  0.76938783  0.98196874  0.93338927    -0.12200
C58         C  0.80207973  0.00099384  0.94755205     0.01500
C59         C  0.82040641  0.98591045  0.98015894    -0.10700
C60         C  0.80747624  0.95180683  0.99788575     0.03900
C61         C  0.77479307  0.93319808  0.98306479    -0.10100
H62         H  0.75619372  0.99215492  0.90739213     0.09500
H63         H  0.84649797  0.99928970  0.99016144     0.07100
H64         H  0.76537885  0.90621773  0.99551288     0.06900
C65         C  0.94647378  0.80471325  0.00233350     0.04000
C66         C  0.97921613  0.81867291  0.98365233    -0.12200
C67         C  0.99399191  0.79986047  0.95115038     0.01500
C68         C  0.97530098  0.76614060  0.93735610    -0.10700
C69         C  0.94238636  0.75126551  0.95525570     0.03900
C70         C  0.92847663  0.77087235  0.98796187    -0.10100
H71         H  0.99196959  0.84563093  0.99318111     0.09500
H72         H  0.98527058  0.75259378  0.91137726     0.07100
H73         H  0.90229302  0.76110416  0.00087428     0.06900
C74         C  0.94672348  0.94600036  0.76433002     0.04000
C75         C  0.98026266  0.92789448  0.77708014    -0.12200
C76         C  0.00005528  0.94141011  0.80962280     0.01500
C77         C  0.98599315  0.97462083  0.82897951    -0.10700
C78         C  0.95278362  0.99398281  0.81618693     0.03900
C79         C  0.93357152  0.97917983  0.78382911    -0.10100
H80         H  0.98946461  0.90143241  0.76326764     0.09500
H81         H  0.99963890  0.98407959  0.85512738     0.07100
H82         H  0.90710961  0.99234608  0.77495301     0.06900
N83         N  0.03843377  0.86576678  0.87706258    -0.35800
N84         N  0.09488887  0.81955871  0.91833980    -0.56300
N85         N  0.15309956  0.85134173  0.87103431    -0.35800
N86         N  0.09758058  0.89550953  0.82749349    -0.56300
C87         C  0.01535576  0.84040679  0.89541237     0.27800
C88         C  0.01720632  0.88490814  0.85094815     0.27800
C89         C  0.17310843  0.82517920  0.89074245     0.27800
C90         C  0.17233404  0.85808393  0.83897706     0.27800
C91         C  0.06380073  0.81711742  0.94114185     0.36400
C92         C  0.12609155  0.81913866  0.94133919     0.36400
C93         C  0.06962454  0.92132490  0.81926257     0.36400
C94         C  0.13105167  0.91054169  0.81503840     0.36400
C95         C  0.97888683  0.84354556  0.88068006    -0.21100
C96         C  0.97997594  0.87171029  0.85297874    -0.21100
C97         C  0.20451924  0.81327272  0.87030402    -0.21100
C98         C  0.20408031  0.83429859  0.83727332    -0.21100
C99         C  0.07511535  0.81485138  0.97877315    -0.22100
C100        C  0.11418896  0.81768193  0.97886759    -0.22100
C101        C  0.08534216  0.95254868  0.80023692    -0.22100
C102        C  0.12412387  0.94587156  0.79777410    -0.22100
C103        C  0.02543816  0.81853660  0.92821969    -0.17500
C104        C  0.03010603  0.91585765  0.82747349    -0.17500
C105        C  0.16725417  0.89174395  0.81803389    -0.17500
C106        C  0.16485470  0.81619413  0.92825809    -0.17500
H107        H  0.95364533  0.82842765  0.88997052     0.15400
H108        H  0.95577488  0.88173257  0.83677014     0.15400
H109        H  0.22637952  0.79315675  0.87881410     0.15400
H110        H  0.22611075  0.83411470  0.81590354     0.15400
H111        H  0.05717453  0.81385465  0.00367067     0.13700
H112        H  0.13184109  0.82013286  0.00374889     0.13700
H113        H  0.07047414  0.97761450  0.78946638     0.13700
H114        H  0.14477482  0.96473070  0.78456552     0.13700
H115        H  0.06596257  0.87315347  0.88504138     0.27000
H116        H  0.13205220  0.86904834  0.88242099     0.27000
N117        N  0.87980508  0.88228742  0.04140898    -0.35800
N118        N  0.85105434  0.93932199  0.09597709    -0.56300
N119        N  0.90034746  0.90542041  0.15249584    -0.35800
N120        N  0.92968035  0.84941114  0.10021714    -0.56300
C121        C  0.85969099  0.90590417  0.01785356     0.27800
C122        C  0.90303533  0.85994690  0.01954390     0.27800
C123        C  0.88937899  0.93800503  0.17018624     0.27800
C124        C  0.92897521  0.89077035  0.17317685     0.27800
C125        C  0.82584013  0.94515004  0.06732293     0.36400
C126        C  0.83560245  0.95404227  0.12829588     0.36400
C127        C  0.93591259  0.82340208  0.07185734     0.36400
C128        C  0.94055816  0.83295731  0.13364177     0.36400
C129        C  0.86968940  0.89766128  0.98057711    -0.21100
C130        C  0.89699524  0.86917737  0.98157297    -0.21100
C131        C  0.91252303  0.94549169  0.20137005    -0.21100
C132        C  0.93777033  0.91541701  0.20330667    -0.21100
C133        C  0.79474591  0.96524840  0.08121535    -0.22100
C134        C  0.80070827  0.97042007  0.11991005    -0.22100
C135        C  0.95223933  0.79044687  0.08723665    -0.22100
C136        C  0.95449454  0.79619530  0.12635735    -0.22100
C137        C  0.83120373  0.93330104  0.02878338    -0.17500
C138        C  0.92767898  0.82967731  0.03241229    -0.17500
C139        C  0.94063129  0.85237283  0.16979592    -0.17500
C140        C  0.85364116  0.95398030  0.16472662    -0.17500
H141        H  0.85794510  0.91015455  0.95511023     0.15400
H142        H  0.91021975  0.85618064  0.95687726     0.15400
H143        H  0.90939723  0.96838939  0.22227791     0.15400
H144        H  0.95820652  0.91093434  0.22591329     0.15400
H145        H  0.77012502  0.97468737  0.06525905     0.13700
H146        H  0.78204972  0.98540463  0.13938396     0.13700
H147        H  0.96102910  0.76472185  0.07196668     0.13700
H148        H  0.96603218  0.77609838  0.14689042     0.13700
H149        H  0.87523830  0.87903181  0.07036468     0.27000
H150        H  0.88363694  0.88960773  0.13345402     0.27000
N151        N  0.87220590  0.87677729  0.72405744    -0.35800
N152        N  0.90783346  0.92384312  0.66517155    -0.56300
N153        N  0.86037673  0.88532480  0.60891956    -0.35800
N154        N  0.82335143  0.83994497  0.66630804    -0.56300
C155        C  0.89236643  0.90206400  0.74613474     0.27800
C156        C  0.84743234  0.85763044  0.74694017     0.27800
C157        C  0.87321809  0.91579187  0.58918972     0.27800
C158        C  0.83037252  0.87133685  0.58936543     0.27800
C159        C  0.93034993  0.93444370  0.69489061     0.36400
C160        C  0.92418458  0.93737129  0.63289178     0.36400
C161        C  0.81388816  0.81807440  0.69694393     0.36400
C162        C  0.81121902  0.82076993  0.63451777     0.36400
C163        C  0.88050300  0.89840511  0.78358849    -0.21100
C164        C  0.85236251  0.87061609  0.78405460    -0.21100
C165        C  0.85032649  0.92241737  0.55770755    -0.21100
C166        C  0.82301209  0.89421879  0.55786651    -0.21100
C167        C  0.96086729  0.95575961  0.68145639    -0.22100
C168        C  0.95697134  0.95757478  0.64230087    -0.22100
C169        C  0.79423217  0.78557293  0.68480601    -0.22100
C170        C  0.79283273  0.78698671  0.64563110    -0.22100
C171        C  0.92252507  0.92690847  0.73399604    -0.17500
C172        C  0.82198773  0.82726183  0.73580534    -0.17500
C173        C  0.81482746  0.83489168  0.59614414    -0.17500
C174        C  0.90814984  0.93358078  0.59567338    -0.17500
H175        H  0.89121975  0.91381143  0.80828417     0.15400
H176        H  0.83765119  0.86073077  0.80911383     0.15400
H177        H  0.85390190  0.94434685  0.53608100     0.15400
H178        H  0.80105026  0.89071618  0.53655112     0.15400
H179        H  0.98326986  0.96916090  0.69814900     0.13700
H180        H  0.97526494  0.97344996  0.62335749     0.13700
H181        H  0.78240991  0.76288446  0.70232954     0.13700
H182        H  0.77883064  0.76558038  0.62810557     0.13700
H183        H  0.87761555  0.87022850  0.69575125     0.27000
H184        H  0.87544021  0.87064265  0.62994235     0.27000
N185        N  0.87036266  0.70857895  0.88639629    -0.35800
N186        N  0.82704317  0.64931250  0.84424122    -0.56300
N187        N  0.86760104  0.58965285  0.88558364    -0.35800
N188        N  0.90933692  0.64785373  0.92957066    -0.56300
C189        C  0.84415630  0.73094348  0.86868303     0.27800
C190        C  0.88710228  0.73038227  0.91406576     0.27800
C191        C  0.83889211  0.56895556  0.87004503     0.27800
C192        C  0.88325047  0.56792774  0.91324403     0.27800
C193        C  0.82075570  0.68136274  0.82261409     0.36400
C194        C  0.82150467  0.61763823  0.82154453     0.36400
C195        C  0.93107816  0.67974414  0.93782618     0.36400
C196        C  0.93186180  0.61589349  0.93308919     0.36400
C197        C  0.84438867  0.76740697  0.88529291    -0.21100
C198        C  0.87138105  0.76714207  0.91374319    -0.21100
C199        C  0.83487300  0.53435640  0.88952779    -0.21100
C200        C  0.86297409  0.53369432  0.91681906    -0.21100
C201        C  0.81068005  0.67037194  0.78622140    -0.22100
C202        C  0.81196691  0.63059805  0.78524065    -0.22100
C203        C  0.96713480  0.66823496  0.94747835    -0.22100
C204        C  0.96793041  0.62861761  0.94354157    -0.22100
C205        C  0.82305795  0.72044272  0.83556211    -0.17500
C206        C  0.91912050  0.71926380  0.93619157    -0.17500
C207        C  0.91923287  0.57588453  0.92884840    -0.17500
C208        C  0.82269159  0.57784487  0.83449160    -0.17500
H209        H  0.82782920  0.79214486  0.87703238     0.15400
H210        H  0.87927162  0.79178431  0.93118502     0.15400
H211        H  0.81500523  0.51109795  0.88407133     0.15400
H212        H  0.86824560  0.50996282  0.93601057     0.15400
H213        H  0.80412493  0.68906657  0.76245422     0.13700
H214        H  0.80663504  0.61421469  0.75989490     0.13700
H215        H  0.99097317  0.68665874  0.95475519     0.13700
H216        H  0.99323805  0.61226635  0.94661068     0.13700
H217        H  0.87957701  0.68162258  0.87697249     0.27000
H218        H  0.88055308  0.61362325  0.87315026     0.27000
N219        N  0.71114699  0.87300311  0.88418335    -0.35800
N220        N  0.65227037  0.82065208  0.85423349    -0.56300
N221        N  0.59587416  0.86352899  0.89806623    -0.35800
N222        N  0.65425707  0.91338460  0.92975254    -0.56300
C223        C  0.73304350  0.84892785  0.86300563     0.27800
C224        C  0.73465940  0.89568837  0.90558120     0.27800
C225        C  0.57604868  0.83178210  0.88796235     0.27800
C226        C  0.57562564  0.88102552  0.92546153     0.27800
C227        C  0.68126270  0.80995348  0.83108306     0.36400
C228        C  0.61962542  0.80624307  0.83893804     0.36400
C229        C  0.68555480  0.93292070  0.94223806     0.36400
C230        C  0.62345048  0.92959378  0.94659794     0.36400
C231        C  0.77091128  0.85730807  0.87043195    -0.21100
C232        C  0.77196945  0.88641036  0.89718596    -0.21100
C233        C  0.54354875  0.82835100  0.90979196    -0.21100
C234        C  0.54328847  0.85962156  0.93372175    -0.21100
C235        C  0.66701114  0.78735065  0.80154340    -0.22100
C236        C  0.62805283  0.78544652  0.80629604    -0.22100
C237        C  0.67480387  0.96127452  0.96778973    -0.22100
C238        C  0.63600577  0.95892381  0.97090509    -0.22100
C239        C  0.72029778  0.82034635  0.83625427    -0.17500
C240        C  0.72393427  0.92494593  0.93218517    -0.17500
C241        C  0.58474885  0.91654625  0.94213888    -0.17500
C242        C  0.58267532  0.81058291  0.85500394    -0.17500
H243        H  0.79546702  0.84423978  0.85755722     0.15400
H244        H  0.79751124  0.89937994  0.90886651     0.15400
H245        H  0.52157945  0.80646430  0.90748665     0.15400
H246        H  0.52144500  0.86617919  0.95435105     0.15400
H247        H  0.68292014  0.77417807  0.77860466     0.13700
H248        H  0.60822480  0.77000949  0.78822431     0.13700
H249        H  0.69309249  0.98091420  0.98354820     0.13700
H250        H  0.62003115  0.97554580  0.99111847     0.13700
H251        H  0.68194797  0.87523892  0.88235514     0.27000
H252        H  0.61796081  0.87597029  0.88276097     0.27000
N253        N  0.87843557  0.03972107  0.88118170    -0.35800
N254        N  0.83174776  0.10167280  0.91682597    -0.56300
N255        N  0.88592806  0.15412304  0.89359472    -0.35800
N256        N  0.93470212  0.09466025  0.85766597    -0.56300
C257        C  0.85443635  0.01806073  0.90262680     0.27800
C258        C  0.90443998  0.01542536  0.86504574     0.27800
C259        C  0.86696978  0.17569910  0.91894512     0.27800
C260        C  0.92104440  0.16877985  0.89187922     0.27800
C261        C  0.81017237  0.07074073  0.92617211     0.36400
C262        C  0.81146979  0.13448629  0.92369942     0.36400
C263        C  0.94554738  0.06521500  0.83460595     0.36400
C264        C  0.94803436  0.12800830  0.84258985     0.36400
C265        C  0.86483553  0.97946182  0.89889272    -0.21100
C266        C  0.89608710  0.97780358  0.87552608    -0.21100
C267        C  0.89113687  0.20337837  0.93484347    -0.21100
C268        C  0.92546044  0.19887513  0.91752140    -0.21100
C269        C  0.77555828  0.08397697  0.93978638    -0.22100
C270        C  0.77621488  0.12418236  0.93758549    -0.22100
C271        C  0.96796716  0.07978116  0.80556408    -0.22100
C272        C  0.96908044  0.11972702  0.81032525    -0.22100
C273        C  0.82231967  0.03120589  0.92425877    -0.17500
C274        C  0.93439275  0.02585288  0.83956747    -0.17500
C275        C  0.94202552  0.16508263  0.85925226    -0.17500
C276        C  0.82766192  0.17265439  0.92340416    -0.17500
H277        H  0.85037010  0.95467484  0.91045423     0.15400
H278        H  0.91074717  0.95170109  0.86697120     0.15400
H279        H  0.88547460  0.22562564  0.95558251     0.15400
H280        H  0.94984621  0.21775431  0.92085830     0.15400
H281        H  0.75240175  0.06654999  0.95048982     0.13700
H282        H  0.75449166  0.14359590  0.94757401     0.13700
H283        H  0.98118950  0.06351340  0.78280747     0.13700
H284        H  0.98404085  0.14015090  0.79254130     0.13700
H285        H  0.87540668  0.06897984  0.87568263     0.27000
H286        H  0.87356278  0.13629734  0.87283548     0.27000
O287        O  0.29686496  0.57328864  0.23105823    -0.77700
C288        C  0.18492220  0.56274502  0.29741018     0.83400
O289        O  0.31921784  0.51033968  0.29644355    -0.78800
O290        O  0.19265060  0.43686998  0.27614303    -0.80300
O291        O  0.22433225  0.45470414  0.17323745    -0.80100
O292        O  0.28726150  0.54624545  0.17413952    -0.78700
Zn293      Zn  0.25430461  0.55155828  0.26281191     1.55700
O294        O  0.17285278  0.47787453  0.20091331    -0.80100
Cd295      Cd  0.26247915  0.49657655  0.19494058     1.59700
Cd296      Cd  0.27794898  0.46629646  0.27932294     1.59600
O297        O  0.31202747  0.46954004  0.19714326    -0.80100
O298        O  0.24760984  0.50118900  0.24724208    -1.90600
Cd299      Cd  0.19511176  0.48909338  0.25274011     1.59900
O300        O  0.29539017  0.42356885  0.23584535    -0.80000
O301        O  0.17511817  0.52745797  0.29364695    -0.78700
C302        C  0.30833945  0.54392683  0.30825792     0.83800
C303        C  0.30679979  0.56771995  0.19672764     0.83500
O304        O  0.20642761  0.57863001  0.27292928    -0.77600
C305        C  0.18931178  0.45123760  0.18196658     0.84300
O306        O  0.27359330  0.54895974  0.31371470    -0.77700
C307        C  0.30826671  0.43410783  0.20310567     0.84400
C308        C  0.20002947  0.43996333  0.31099856     0.84800
O309        O  0.23396759  0.45034312  0.32075361    -0.80200
O310        O  0.27839523  0.17475802  0.55295454    -0.77700
C311        C  0.20130017  0.17429783  0.44802962     0.83400
O312        O  0.30328824  0.23277280  0.43455543    -0.78800
O313        O  0.19771969  0.27156619  0.43355336    -0.80300
O314        O  0.19492023  0.27818480  0.57402837    -0.80100
O315        O  0.28796032  0.23159167  0.58174213    -0.78700
Zn316      Zn  0.26492010  0.19547799  0.50194715     1.55700
O317        O  0.16896411  0.28968019  0.51736419    -0.80100
Cd318      Cd  0.24693163  0.26374740  0.55474817     1.59700
Cd319      Cd  0.27901330  0.27791012  0.47145451     1.59600
O320        O  0.26941532  0.31622324  0.55231511    -0.80100
O321        O  0.24668797  0.24525745  0.50331646    -1.90600
Cd322      Cd  0.19559778  0.24742419  0.48469051     1.59900
O323        O  0.31628303  0.29739897  0.51653844    -0.80000
O324        O  0.17767543  0.19452076  0.46708747    -0.78700
C325        C  0.31710258  0.20134281  0.44879427     0.83800
C326        C  0.29753757  0.19672786  0.57540494     0.83500
O327        O  0.23555603  0.17050402  0.45862936    -0.77600
C328        C  0.17383931  0.29840486  0.55227405     0.84300
O329        O  0.31597976  0.19678891  0.48403244    -0.77700
C330        C  0.30430382  0.31038343  0.54869432     0.84400
C331        C  0.20258095  0.30711828  0.43871183     0.84800
O332        O  0.23502320  0.31830985  0.45201521    -0.80200
O333        O  0.53404509  0.76501758  0.83855886    -0.77700
C334        C  0.41769412  0.69998959  0.80485583     0.83400
O335        O  0.56108536  0.70099685  0.77014990    -0.78800
O336        O  0.44369790  0.72864469  0.68947034    -0.80300
O337        O  0.48781767  0.83349832  0.71679467    -0.80100
O338        O  0.53292324  0.82308474  0.81141016    -0.78700
Zn339      Zn  0.49249284  0.73395913  0.81044784     1.55700
O340        O  0.43116051  0.80513370  0.71024323    -0.80100
Cd341      Cd  0.51320360  0.80420086  0.76049591     1.59700
Cd342      Cd  0.52178570  0.72012033  0.72731489     1.59600
O343        O  0.56406328  0.79819614  0.73725666    -0.80100
O344        O  0.49105391  0.75322268  0.76097485    -1.90600
Cd345      Cd  0.44075418  0.75485856  0.73980527     1.59900
O346        O  0.54248275  0.76472140  0.68912466    -0.80000
O347        O  0.41127547  0.71257354  0.77119753    -0.78700
C348        C  0.55014326  0.68872777  0.80280403     0.83800
C349        C  0.54818414  0.79868345  0.83379201     0.83500
O350        O  0.44100712  0.71698718  0.82755226    -0.77600
C351        C  0.45770286  0.82702559  0.69783673     0.84300
O352        O  0.51528695  0.68333106  0.80757617    -0.77700
C353        C  0.55857196  0.79566948  0.70204424     0.84400
C354        C  0.44702976  0.69287890  0.69262846     0.84800
O355        O  0.47810006  0.67997453  0.70708705    -0.80200
O356        O  0.16248178  0.69737169  0.98485084    -0.77700
C357        C  0.16791119  0.79764105  0.07439066     0.83400
O358        O  0.23073160  0.79991478  0.95016055    -0.78800
O359        O  0.26406771  0.81238059  0.06212254    -0.80300
O360        O  0.29453922  0.68556036  0.05190960    -0.80100
O361        O  0.21710434  0.68950004  0.95804881    -0.78700
Zn362      Zn  0.18475963  0.74044914  0.01452000     1.55700
O363        O  0.28739145  0.73288477  0.09418857    -0.80100
Cd364      Cd  0.23954758  0.68002878  0.01872796     1.59700
Cd365      Cd  0.27279451  0.76642241  0.98371729     1.59600
O366        O  0.28000379  0.66729353  0.97852977    -0.80100
O367        O  0.23776265  0.73957488  0.01923713    -1.90600
Cd368      Cd  0.24232489  0.76090850  0.06982513     1.59900
O369        O  0.30332504  0.72051214  0.95279042    -0.80000
O370        O  0.19766485  0.78969523  0.09318989    -0.78700
C371        C  0.19406049  0.79663054  0.95252615     0.83800
C372        C  0.18176928  0.69322432  0.95444484     0.83500
O373        O  0.15563991  0.77490402  0.04865421    -0.77600
C374        C  0.30714508  0.70616681  0.07926711     0.84300
O375        O  0.17942211  0.77437193  0.97593126    -0.77700
C376        C  0.30197663  0.68316373  0.95555813     0.84400
C377        C  0.29885162  0.81008827  0.05703260     0.84800
O378        O  0.31066933  0.79447963  0.02580509    -0.80200
O379        O  0.01827332  0.46193966  0.07992527    -0.77700
C380        C  0.95003769  0.57203429  0.05717832     0.83400
O381        O  0.95517456  0.43408485  0.02402805    -0.78800
O382        O  0.98031495  0.54823439  0.93448941    -0.80300
O383        O  0.08041596  0.53887319  0.96369782    -0.80100
O384        O  0.07295424  0.46279096  0.04801255    -0.78700
Zn385      Zn  0.98792786  0.50424646  0.05516758     1.55700
O386        O  0.04485006  0.58789605  0.98061004    -0.80100
Cd387      Cd  0.05984892  0.50263651  0.00633858     1.59700
Cd388      Cd  0.97616893  0.46805656  0.97644992     1.59600
O389        O  0.07194573  0.46285233  0.97062739    -0.80100
O390        O  0.00560955  0.50671201  0.00559883    -1.90600
Cd391      Cd  0.99605017  0.55814758  0.98805406     1.59900
O392        O  0.02047927  0.43723535  0.94390914    -0.80000
O393        O  0.95123587  0.57749915  0.02133241    -0.78700
C394        C  0.94078611  0.44797662  0.05486221     0.83800
C395        C  0.04990591  0.44663488  0.07111168     0.83500
O396        O  0.97825524  0.55654262  0.07416937    -0.77600
C397        C  0.06637382  0.57180568  0.95627495     0.84300
O398        O  0.93663662  0.48396059  0.05710068    -0.77700
C399        C  0.05708977  0.43940353  0.94790874     0.84400
C400        C  0.94552254  0.54210266  0.93724800     0.84800
O401        O  0.93516728  0.50898192  0.95071745    -0.80200
O402        O  0.32314873  0.03703902  0.78497543    -0.77700
C403        C  0.33193265  0.93251072  0.70320358     0.83400
O404        O  0.26989173  0.06200862  0.70965108    -0.78800
O405        O  0.22360164  0.92858531  0.70731032    -0.80300
O406        O  0.21445583  0.94007549  0.82534167    -0.80100
O407        O  0.29497884  0.01362629  0.83676155    -0.78700
Zn408      Zn  0.31065386  0.99503085  0.74665716     1.55700
O409        O  0.22148048  0.89765475  0.77797067    -0.80100
Cd410      Cd  0.25225027  0.98286478  0.81078783     1.59700
Cd411      Cd  0.22855944  0.02070525  0.72897327     1.59600
O412        O  0.21474561  0.02228215  0.82185485    -0.80100
O413        O  0.26062317  0.98233505  0.75732986    -1.90600
Cd414      Cd  0.26004401  0.92817580  0.74624534     1.59900
O415        O  0.19266950  0.05034562  0.77003361    -0.80000
O416        O  0.30027270  0.91523960  0.70588696    -0.78700
C417        C  0.30303626  0.05222218  0.69835768     0.83800
C418        C  0.31346730  0.04041991  0.81980145     0.83500
O419        O  0.34460329  0.95179180  0.73170537    -0.77600
C420        C  0.20273361  0.91106311  0.80605465     0.84300
O421        O  0.31056626  0.01701727  0.69659829    -0.77700
C422        C  0.19373973  0.04692240  0.80655004     0.84400
C423        C  0.20342432  0.94693773  0.68465343     0.84800
O424        O  0.20161288  0.98425720  0.68616720    -0.80200
O425        O  0.67446433  0.73869899  0.45766844    -0.77700
C426        C  0.68756044  0.79316054  0.57558137     0.83400
O427        O  0.73876167  0.80587444  0.44361605    -0.78800
O428        O  0.80849521  0.77373180  0.56746371    -0.80300
O429        O  0.78944465  0.67129037  0.51806147    -0.80100
O430        O  0.69675857  0.67961483  0.46824863    -0.78700
Zn431      Zn  0.69671662  0.76749853  0.50318553     1.55700
O432        O  0.78350259  0.69523022  0.57682169    -0.80100
Cd433      Cd  0.74721327  0.69900372  0.48845902     1.59700
Cd434      Cd  0.77994890  0.78381352  0.48297401     1.59600
O435        O  0.77179043  0.70603696  0.43852101    -0.80100
O436        O  0.74526905  0.74949443  0.51023150    -1.90600
Cd437      Cd  0.75885883  0.74718654  0.56328464     1.59900
O438        O  0.81848671  0.73941289  0.46319472    -0.80000
O439        O  0.72125356  0.78723123  0.58779879    -0.78700
C440        C  0.70613574  0.81803816  0.45466739     0.83800
C441        C  0.67766998  0.70332024  0.44813051     0.83500
O442        O  0.67214853  0.76924606  0.55251569    -0.77600
C443        C  0.80174101  0.67568209  0.55182086     0.84300
O444        O  0.70070872  0.82150180  0.48976573    -0.77700
C445        C  0.80642472  0.70841182  0.44652263     0.84400
C446        C  0.80620768  0.80941357  0.56244661     0.84800
O447        O  0.79667131  0.82169173  0.52924652    -0.80200
O448        O  0.04783550  0.76638887  0.33375402    -0.77700
C449        C  0.93122458  0.71530328  0.32621045     0.83400
O450        O  0.05863284  0.70136208  0.26616347    -0.78800
O451        O  0.92485442  0.72597845  0.21989865    -0.80300
O452        O  0.98095513  0.84148269  0.22349178    -0.80100
O453        O  0.03985295  0.82702825  0.31429384    -0.78700
Zn454      Zn  0.00127276  0.74040566  0.31202181     1.55700
O455        O  0.92765408  0.80646601  0.21851509    -0.80100
Cd456      Cd  0.01269166  0.81180344  0.26438894     1.59700
Cd457      Cd  0.01866649  0.72802907  0.22621436     1.59600
O458        O  0.06111014  0.80742880  0.23642016    -0.80100
O459        O  0.99200530  0.76003386  0.26443932    -1.90600
Cd460      Cd  0.93791160  0.76346755  0.25816481     1.59900
O461        O  0.03779000  0.77342406  0.18956165    -0.80000
O462        O  0.91460061  0.72314948  0.29506489    -0.78700
C463        C  0.04749562  0.68820113  0.29861754     0.83800
C464        C  0.05890664  0.80132831  0.33219843     0.83500
O465        O  0.95417201  0.73986063  0.34045223    -0.77600
C466        C  0.95046184  0.83212895  0.20577951     0.84300
O467        O  0.01248820  0.68646549  0.30432124    -0.77700
C468        C  0.05276524  0.80499589  0.20181425     0.84400
C469        C  0.93854986  0.70097424  0.19827031     0.84800
O470        O  0.97470332  0.69506763  0.19718392    -0.80200
O471        O  0.58039888  0.02221334  0.96279692    -0.77700
C472        C  0.56049254  0.96923051  0.08398760     0.83400
O473        O  0.52131085  0.94560136  0.94762451    -0.78800
O474        O  0.45380100  0.97537198  0.07536368    -0.80300
O475        O  0.45855179  0.08722838  0.01154077    -0.80100
O476        O  0.55530200  0.08048282  0.96919990    -0.78700
Zn477      Zn  0.55832136  0.99562451  0.00929392     1.55700
O478        O  0.45480341  0.05984031  0.06892191    -0.80100
Cd479      Cd  0.50464536  0.05892626  0.98765606     1.77300
Cd480      Cd  0.47706180  0.97211705  0.98199704     1.59600
O481        O  0.48512277  0.04725356  0.93594403    -0.80100
O482        O  0.50793080  0.00900052  0.01187683    -1.90600
Cd483      Cd  0.49200516  0.01485662  0.06357309     1.59900
O484        O  0.43764310  0.01310813  0.95583616    -0.80000
O485        O  0.53124214  0.98671919  0.09667052    -0.78700
C486        C  0.55350153  0.93627564  0.96257049     0.83800
C487        C  0.57563917  0.05641078  0.95076637     0.83500
O488        O  0.58152659  0.98532271  0.05910470    -0.77600
C489        C  0.44122510  0.08134211  0.04276708     0.84300
O490        O  0.55945328  0.94311042  0.99682129    -0.77700
C491        C  0.45002881  0.04403739  0.93970985     0.84400
C492        C  0.44703332  0.94262604  0.06105134     0.84800
O493        O  0.45449328  0.93482638  0.02587075    -0.80200
C494        C  0.30719438  0.80548084  0.26146667     0.04000
C495        C  0.27571160  0.82150462  0.28082224    -0.12200
C496        C  0.26071173  0.80360122  0.31367504     0.01500
C497        C  0.27771842  0.76926202  0.32706499    -0.10700
C498        C  0.30920293  0.75283408  0.30832931     0.03900
C499        C  0.32342022  0.77101777  0.27542784    -0.10100
H500        H  0.26397749  0.84876004  0.27130612     0.09500
H501        H  0.26754791  0.75630092  0.35315155     0.07100
H502        H  0.34853498  0.75943545  0.26182745     0.06900
N503        N  0.38018659  0.70502406  0.37508629    -0.35800
N504        N  0.34134451  0.64908857  0.32405387    -0.56300
N505        N  0.38410870  0.58953974  0.35857961    -0.35800
N506        N  0.42414743  0.64271772  0.40909513    -0.56300
C507        C  0.36073952  0.72970359  0.35214250     0.27800
C508        C  0.40481237  0.72638321  0.39668216     0.27800
C509        C  0.37064732  0.57159084  0.32734252     0.27800
C510        C  0.41372690  0.56881254  0.37076160     0.27800
C511        C  0.32041893  0.68113760  0.31671525     0.36400
C512        C  0.32088732  0.61768826  0.31226164     0.36400
C513        C  0.43419410  0.67185082  0.43341098     0.36400
C514        C  0.43015400  0.60822311  0.42675625     0.36400
C515        C  0.37255230  0.76726042  0.35991888    -0.21100
C516        C  0.39986330  0.76515973  0.38792854    -0.21100
C517        C  0.39336291  0.54048446  0.31777367    -0.21100
C518        C  0.42098921  0.53876650  0.34534284    -0.21100
C519        C  0.28713148  0.67038119  0.29849078    -0.22100
C520        C  0.28714494  0.63051469  0.29629644    -0.22100
C521        C  0.44806825  0.65564291  0.46671874    -0.22100
C522        C  0.44466659  0.61559926  0.46286562    -0.22100
C523        C  0.33083287  0.71994029  0.32615530    -0.17500
C524        C  0.43004152  0.71254568  0.42571254    -0.17500
C525        C  0.42583159  0.57095373  0.40849165    -0.17500
C526        C  0.33416369  0.57832484  0.31403779    -0.17500
H527        H  0.36190426  0.79372845  0.34750334     0.15400
H528        H  0.41325100  0.78973305  0.40149285     0.15400
H529        H  0.38944173  0.52004016  0.29465207     0.15400
H530        H  0.44238282  0.51650348  0.34729990     0.15400
H531        H  0.26473356  0.68920669  0.28848242     0.13700
H532        H  0.26507430  0.61367126  0.28326350     0.13700
H533        H  0.45842265  0.67103248  0.49161372     0.13700
H534        H  0.45297131  0.59441901  0.48379675     0.13700
H535        H  0.37464108  0.67571663  0.37785769     0.27000
H536        H  0.36884559  0.60897050  0.37541908     0.27000
C537        C  0.50513035  0.94099895  0.30529616     0.04000
C538        C  0.49039317  0.97522263  0.32234998    -0.12200
C539        C  0.45769196  0.99401636  0.30734162     0.01500
C540        C  0.43986559  0.97744289  0.27487714    -0.10700
C541        C  0.45374718  0.94311583  0.25766031     0.03900
C542        C  0.48657094  0.92568087  0.27286503    -0.10100
H543        H  0.50310086  0.98601405  0.34847366     0.09500
H544        H  0.41368537  0.98995000  0.26438782     0.07100
H545        H  0.49630375  0.89851128  0.26087360     0.06900
N546        N  0.54552482  0.86583112  0.37354362    -0.35800
N547        N  0.60342120  0.82338290  0.41667696    -0.56300
N548        N  0.66029662  0.85887868  0.37039774    -0.35800
N549        N  0.60383596  0.89918911  0.32502124    -0.56300
C550        C  0.52289409  0.84006081  0.39207988     0.27800
C551        C  0.52346617  0.88629964  0.34895514     0.27800
C552        C  0.68053638  0.83274627  0.39010796     0.27800
C553        C  0.67958331  0.86557111  0.33815124     0.27800
C554        C  0.57190553  0.81351079  0.43666878     0.36400
C555        C  0.63405524  0.81964332  0.44015423     0.36400
C556        C  0.57481662  0.92311398  0.31530086     0.36400
C557        C  0.63640233  0.91408854  0.31033048     0.36400
C558        C  0.48594989  0.84468574  0.37917666    -0.21100
C559        C  0.48619096  0.87375607  0.35243024    -0.21100
C560        C  0.71219684  0.82153870  0.36943679    -0.21100
C561        C  0.71156490  0.84245569  0.33649772    -0.21100
C562        C  0.58250102  0.80217939  0.47285861    -0.22100
C563        C  0.62133269  0.80691947  0.47538433    -0.22100
C564        C  0.58897336  0.95298352  0.29320104    -0.22100
C565        C  0.62780799  0.94728870  0.29016036    -0.22100
C566        C  0.53368897  0.81542049  0.42300287    -0.17500
C567        C  0.53565530  0.91702589  0.32456679    -0.17500
C568        C  0.67331747  0.89728324  0.31473383    -0.17500
C569        C  0.67297582  0.82379363  0.42808802    -0.17500
H570        H  0.46098751  0.82988472  0.38911677     0.15400
H571        H  0.46144850  0.88463286  0.33762915     0.15400
H572        H  0.73400439  0.80103394  0.37690843     0.15400
H573        H  0.73317246  0.84222578  0.31465835     0.15400
H574        H  0.56413660  0.79264443  0.49560936     0.13700
H575        H  0.63758074  0.80066140  0.50046445     0.13700
H576        H  0.57300782  0.97633971  0.28045681     0.13700
H577        H  0.64733301  0.96523371  0.27449770     0.13700
H578        H  0.57365971  0.87193635  0.37985803     0.27000
H579        H  0.63887399  0.87619798  0.38165617     0.27000
N580        N  0.37906850  0.87388684  0.21839751    -0.35800
N581        N  0.42038858  0.91234163  0.15829100    -0.56300
N582        N  0.38107951  0.86561806  0.09765559    -0.35800
N583        N  0.33528160  0.83225699  0.15906408    -0.56300
C584        C  0.39899368  0.89961979  0.23999239     0.27800
C585        C  0.35369610  0.85609444  0.24124513     0.27800
C586        C  0.39858580  0.89268474  0.07639936     0.27800
C587        C  0.35219028  0.85178026  0.07627324     0.27800
C588        C  0.44242279  0.92205754  0.18897271     0.36400
C589        C  0.44253532  0.91596631  0.12698440     0.36400
C590        C  0.31786968  0.81847367  0.19106990     0.36400
C591        C  0.31559617  0.81864894  0.12813690     0.36400
C592        C  0.38629054  0.89774381  0.27727773    -0.21100
C593        C  0.35797862  0.87021077  0.27812730    -0.21100
C594        C  0.38118598  0.89564153  0.04109767    -0.21100
C595        C  0.35207925  0.86956105  0.04087967    -0.21100
C596        C  0.47840690  0.93207717  0.17700321    -0.22100
C597        C  0.47840029  0.92731266  0.13816930    -0.22100
C598        C  0.28683222  0.79658994  0.18060049    -0.22100
C599        C  0.28463790  0.79790082  0.14167097    -0.22100
C600        C  0.43058614  0.92193516  0.22769832    -0.17500
C601        C  0.32703551  0.82723375  0.22998085    -0.17500
C602        C  0.32414755  0.82571608  0.08820348    -0.17500
C603        C  0.42993892  0.91452123  0.08817845    -0.17500
H604        H  0.39690613  0.91371116  0.30167030     0.15400
H605        H  0.34241338  0.86164712  0.30322156     0.15400
H606        H  0.38768932  0.91523638  0.01811615     0.15400
H607        H  0.33187961  0.86586289  0.01783459     0.15400
H608        H  0.50249379  0.94053399  0.19440429     0.13700
H609        H  0.50213828  0.93046136  0.11981229     0.13700
H610        H  0.26625852  0.78312950  0.19917618     0.13700
H611        H  0.26100307  0.78639067  0.12625579     0.13700
H612        H  0.38476588  0.86604113  0.19054139     0.27000
H613        H  0.38972981  0.85588450  0.12429188     0.27000
C614        C  0.26195243  0.94875146  0.45405925     0.04000
C615        C  0.27970848  0.98021861  0.43539313    -0.12200
C616        C  0.31533344  0.99473386  0.44786511     0.01500
C617        C  0.33306430  0.97709725  0.47950426    -0.10700
C618        C  0.31600959  0.94559404  0.49855195     0.03900
C619        C  0.28028239  0.93215390  0.48589700    -0.10100
H620        H  0.26688633  0.99190268  0.40984049     0.09500
H621        H  0.36100500  0.98689866  0.48835582     0.07100
H622        H  0.26809726  0.90665734  0.49896906     0.06900
C623        C  0.45423523  0.79658072  0.49507787     0.04000
C624        C  0.43747151  0.76225826  0.47995761    -0.12200
C625        C  0.45289643  0.74323626  0.44751661     0.01500
C626        C  0.48550895  0.75997956  0.43023187    -0.10700
C627        C  0.50251109  0.79445906  0.44460196     0.03900
C628        C  0.48676124  0.81188052  0.47723599    -0.10100
H629        H  0.41120074  0.75167809  0.49203509     0.09500
H630        H  0.49623730  0.74748905  0.40405942     0.07100
H631        H  0.49866762  0.83893770  0.48759626     0.06900
N632        N  0.38689651  0.87199656  0.53762952    -0.35800
N633        N  0.44099581  0.84245421  0.59231085    -0.56300
N634        N  0.40714981  0.89438865  0.64718094    -0.35800
N635        N  0.35346390  0.92284118  0.59671028    -0.56300
C636        C  0.40995139  0.85086067  0.51439103     0.27800
C637        C  0.36700275  0.89732650  0.51573044     0.27800
C638        C  0.43983377  0.88475792  0.66387209     0.27800
C639        C  0.39202034  0.92281906  0.66816084     0.27800
C640        C  0.44587953  0.81546307  0.56465251     0.36400
C641        C  0.45328443  0.82707086  0.62561116     0.36400
C642        C  0.32920325  0.92951605  0.56760394     0.36400
C643        C  0.33529735  0.93112990  0.62987396     0.36400
C644        C  0.40377285  0.86219088  0.47707819    -0.21100
C645        C  0.37696622  0.89125142  0.47796045    -0.21100
C646        C  0.44755921  0.90972783  0.69401469    -0.21100
C647        C  0.41689944  0.93390743  0.69689439    -0.21100
C648        C  0.46333973  0.78318474  0.58012628    -0.22100
C649        C  0.46741219  0.79029224  0.61888836    -0.22100
C650        C  0.29546525  0.94394523  0.58221327    -0.22100
C651        C  0.29904464  0.94419095  0.62165828    -0.22100
C652        C  0.43520530  0.82053692  0.52577430    -0.17500
C653        C  0.33799136  0.92357592  0.52833757    -0.17500
C654        C  0.35332772  0.93023395  0.66651709    -0.17500
C655        C  0.45290013  0.84714227  0.66121843    -0.17500
H656        H  0.41684270  0.85049681  0.45167895     0.15400
H657        H  0.36526539  0.90533648  0.45329106     0.15400
H658        H  0.47040417  0.90761441  0.71457146     0.15400
H659        H  0.41236949  0.95464858  0.71950244     0.15400
H660        H  0.47147331  0.75700163  0.56524178     0.13700
H661        H  0.48012807  0.77107534  0.63947638     0.13700
H662        H  0.27063643  0.95274167  0.56624389     0.13700
H663        H  0.27803160  0.95433228  0.64171723     0.13700
H664        H  0.38236997  0.86691290  0.56635938     0.27000
H665        H  0.39138901  0.87563942  0.62988345     0.27000
N666        N  0.38694348  0.03731745  0.37782741    -0.35800
N667        N  0.34156952  0.09773039  0.41671459    -0.56300
N668        N  0.38364490  0.15785064  0.37730212    -0.35800
N669        N  0.43079576  0.09767277  0.33918694    -0.56300
C670        C  0.36544282  0.01424320  0.40044902     0.27800
C671        C  0.41185775  0.01437997  0.35863367     0.27800
C672        C  0.36674870  0.17989225  0.40417454     0.27800
C673        C  0.41297109  0.17888317  0.36379840     0.27800
C674        C  0.32607577  0.06563956  0.43306630     0.36400
C675        C  0.32559952  0.12941892  0.43347516     0.36400
C676        C  0.44242657  0.06595995  0.31892515     0.36400
C677        C  0.43885211  0.12986287  0.31833883     0.36400
C678        C  0.37662765  0.97615954  0.39506364    -0.21100
C679        C  0.40590370  0.97623408  0.36925083    -0.21100
C680        C  0.38580497  0.21480052  0.40818984    -0.21100
C681        C  0.41508438  0.21410292  0.38294517    -0.21100
C682        C  0.30039442  0.07697140  0.46050757    -0.22100
C683        C  0.30060704  0.11668950  0.46127605    -0.22100
C684        C  0.45885858  0.07804354  0.28541518    -0.22100
C685        C  0.45597436  0.11784968  0.28463904    -0.22100
C686        C  0.33588995  0.02607792  0.42579778    -0.17500
C687        C  0.43770586  0.02613823  0.32958004    -0.17500
C688        C  0.43324930  0.16959115  0.33071839    -0.17500
C689        C  0.33523046  0.16940496  0.42611741    -0.17500
H690        H  0.36444062  0.95066704  0.40774020     0.15400
H691        H  0.42041422  0.95076360  0.35881920     0.15400
H692        H  0.37982301  0.23820790  0.42785770     0.15400
H693        H  0.43541162  0.23725926  0.37972529     0.15400
H694        H  0.28447262  0.05855437  0.47954368     0.13700
H695        H  0.28591159  0.13338573  0.48238704     0.13700
H696        H  0.47063434  0.05999670  0.26314345     0.13700
H697        H  0.46562136  0.13521351  0.26132450     0.13700
H698        H  0.38337452  0.06669960  0.37427196     0.27000
H699        H  0.37299068  0.13239649  0.36537170     0.27000
N700        N  0.21933539  0.87471072  0.38583834    -0.35800
N701        N  0.16158674  0.91082920  0.43570108    -0.56300
N702        N  0.10684956  0.85990388  0.40204213    -0.35800
N703        N  0.16245193  0.82280489  0.35355038    -0.56300
C704        C  0.24187919  0.89576931  0.40972564     0.27800
C705        C  0.24197343  0.84992465  0.36594778     0.27800
C706        C  0.08696448  0.87400978  0.43155586     0.27800
C707        C  0.08751972  0.82900400  0.38908018     0.27800
C708        C  0.19134912  0.93468516  0.44339719     0.36400
C709        C  0.12922527  0.92858838  0.44764196     0.36400
C710        C  0.19157112  0.81333034  0.33026953     0.36400
C711        C  0.13011725  0.80922273  0.33713441     0.36400
C712        C  0.27936734  0.88454084  0.40425039    -0.21100
C713        C  0.27938973  0.85590379  0.37688951    -0.21100
C714        C  0.05566116  0.85064360  0.43864265    -0.21100
C715        C  0.05599561  0.82206359  0.41153106    -0.21100
C716        C  0.17788174  0.96762003  0.46170391    -0.22100
C717        C  0.13858198  0.96400688  0.46388303    -0.22100
C718        C  0.17779875  0.79206171  0.29953630    -0.22100
C719        C  0.13878872  0.78991395  0.30362643    -0.22100
C720        C  0.23031074  0.92635154  0.43484184    -0.17500
C721        C  0.23031818  0.82315635  0.33695986    -0.17500
C722        C  0.09338499  0.81263543  0.35337391    -0.17500
C723        C  0.09217303  0.91129650  0.44607182    -0.17500
H724        H  0.30447104  0.89608534  0.41807177     0.15400
H725        H  0.30433600  0.84135775  0.36611726     0.15400
H726        H  0.03346736  0.85513524  0.45938093     0.15400
H727        H  0.03422157  0.80027350  0.40718336     0.15400
H728        H  0.19455332  0.99193001  0.47194546     0.13700
H729        H  0.11928867  0.98456709  0.47672519     0.13700
H730        H  0.19407786  0.77983622  0.27635740     0.13700
H731        H  0.11920910  0.77515039  0.28462687     0.13700
H732        H  0.19068693  0.87956832  0.38097589     0.27000
H733        H  0.12704713  0.87513977  0.38652666     0.27000
O734        O  0.82277677  0.04089715  0.31050352    -0.77700
C735        C  0.83182354  0.96222534  0.19967675     0.83400
O736        O  0.75946281  0.05677256  0.19349945    -0.78800
O737        O  0.73213370  0.95528750  0.18724010    -0.80300
O738        O  0.72990458  0.93388702  0.32515989    -0.80100
O739        O  0.76911116  0.03295643  0.34283356    -0.78700
Zn740      Zn  0.80605434  0.02181953  0.25935043     1.55700
O741        O  0.71682654  0.91585214  0.26575090    -0.80100
Cd742      Cd  0.74374689  0.98933662  0.31238271     1.59700
Cd743      Cd  0.72227030  0.02998262  0.23454001     1.59600
O744        O  0.69092610  0.00697284  0.31558330    -0.80100
O745        O  0.75940792  0.99703855  0.26085372    -1.90600
Cd746      Cd  0.75861857  0.94731640  0.23637139     1.59900
O747        O  0.69897179  0.06040210  0.28258128    -0.80000
O748        O  0.80993674  0.93563840  0.21230680    -0.78700
C749        C  0.79111207  0.07107351  0.20508955     0.83800
C750        C  0.79888753  0.05218237  0.33549125     0.83500
O751        O  0.83535404  0.99510287  0.21626874    -0.77600
C752        C  0.70835330  0.91675258  0.30097283     0.84300
O753        O  0.79609567  0.07302746  0.24020545    -0.77700
C754        C  0.68718463  0.04284547  0.31265172     0.84400
C755        C  0.69756479  0.95688564  0.19519652     0.84800
O756        O  0.68531164  0.98673447  0.21296015    -0.80200
O757        O  0.82146749  0.23710536  0.94931299    -0.77700
C758        C  0.82422167  0.30398329  0.05765909     0.83400
O759        O  0.76350123  0.19675360  0.06308167    -0.78800
O760        O  0.72846392  0.30438267  0.06655225    -0.80300
O761        O  0.72085950  0.30943833  0.92734962    -0.80100
O762        O  0.77114424  0.21249845  0.92117238    -0.78700
Zn763      Zn  0.80169405  0.24040579  0.00123466     1.55700
O764        O  0.71003602  0.33554854  0.98443096    -0.80100
Cd765      Cd  0.73766718  0.25647709  0.94524114     1.59700
Cd766      Cd  0.72076126  0.22352863  0.02727384     1.59600
O767        O  0.68568158  0.23490767  0.94633973    -0.80100
O768        O  0.75368100  0.25809965  0.99782845    -1.90600
Cd769      Cd  0.75313206  0.31008989  0.01664692     1.59900
O770        O  0.70112993  0.18640651  0.98222712    -0.80000
O771        O  0.80418099  0.32857819  0.03938951    -0.78700
C772        C  0.79402123  0.18315653  0.04793462     0.83800
C773        C  0.80576120  0.20914344  0.93121197     0.83500
O774        O  0.82616019  0.26889068  0.04671856    -0.77600
C775        C  0.70010065  0.32920730  0.95001350     0.84300
O776        O  0.79847817  0.18608717  0.01277031    -0.77700
C777        C  0.68902426  0.19918531  0.95017364     0.84400
C778        C  0.69374275  0.30054852  0.05987350     0.84800
O779        O  0.68185627  0.26774290  0.04691450    -0.80200
C780        C  0.30428489  0.24712267  0.80414710     0.04000
C781        C  0.26951244  0.26246517  0.81758419    -0.12200
C782        C  0.25194362  0.29447623  0.79959554     0.01500
C783        C  0.26976702  0.31087575  0.76742547    -0.10700
C784        C  0.30462246  0.29644888  0.75357946     0.03900
C785        C  0.32134272  0.26438313  0.77206177    -0.10100
H786        H  0.25743524  0.25114982  0.84358608     0.09500
H787        H  0.25790947  0.33677180  0.75485818     0.07100
H788        H  0.34872157  0.25400646  0.76253158     0.06900
C789        C  0.49758468  0.30346676  0.94985598     0.04000
C790        C  0.48088990  0.27151925  0.93049823    -0.12200
C791        C  0.44897463  0.25198153  0.94552406     0.01500
C792        C  0.43399459  0.26480322  0.98068226    -0.10700
C793        C  0.44946746  0.29712864  0.00034455     0.03900
C794        C  0.48154499  0.31588560  0.98473196    -0.10100
H795        H  0.49169040  0.26298831  0.90287381     0.09500
H796        H  0.40845055  0.25126175  0.99147475     0.07100
H797        H  0.49234810  0.34192631  0.99831784     0.06900
C798        C  0.44502617  0.44131457  0.75121824     0.04000
C799        C  0.47667172  0.42707903  0.77157601    -0.12200
C800        C  0.48903230  0.44488500  0.80569812     0.01500
C801        C  0.46987090  0.47809205  0.81893554    -0.10700
C802        C  0.43857839  0.49338591  0.79879394     0.03900
C803        C  0.42649980  0.47481485  0.76486573    -0.10100
H804        H  0.49025583  0.40065177  0.76209126     0.09500
H805        H  0.47824859  0.49102216  0.84587884     0.07100
H806        H  0.40096917  0.48472961  0.75067351     0.06900
C807        C  0.25548620  0.43120121  0.94804686     0.04000
C808        C  0.27113102  0.41660484  0.98197452    -0.12200
C809        C  0.30406982  0.43313731  0.99831265     0.01500
C810        C  0.32160099  0.46499022  0.97997981    -0.10700
C811        C  0.30625167  0.48080090  0.94609002     0.03900
C812        C  0.27302618  0.46353862  0.93066588    -0.10100
H813        H  0.25908613  0.39070188  0.99440617     0.09500
H814        H  0.34800571  0.47645915  0.99129715     0.07100
H815        H  0.26167872  0.47425387  0.90400934     0.06900
N816        N  0.36896595  0.52962298  0.87116750    -0.35800
N817        N  0.32979046  0.58461883  0.91890427    -0.56300
N818        N  0.36136726  0.64793666  0.87403969    -0.35800
N819        N  0.39834190  0.59299433  0.82378866    -0.56300
C820        C  0.34527628  0.50514861  0.89001183     0.27800
C821        C  0.38490598  0.50963159  0.84205468     0.27800
C822        C  0.33482049  0.66649843  0.89461559     0.27800
C823        C  0.36794082  0.66984320  0.84314135     0.27800
C824        C  0.32546517  0.55182953  0.93984404     0.36400
C825        C  0.32693347  0.61531453  0.94306129     0.36400
C826        C  0.42098439  0.56374644  0.81149383     0.36400
C827        C  0.41381387  0.62679290  0.81144797     0.36400
C828        C  0.34646234  0.46919966  0.87245733    -0.21100
C829        C  0.37139599  0.47187480  0.84247751    -0.21100
C830        C  0.32347460  0.69983350  0.87581638    -0.21100
C831        C  0.34483946  0.70212173  0.84339226    -0.21100
C832        C  0.31960951  0.56155060  0.97755600    -0.22100
C833        C  0.32175009  0.60135591  0.97985190    -0.22100
C834        C  0.45056490  0.57904449  0.79034606    -0.22100
C835        C  0.44597880  0.61884316  0.79025772    -0.22100
C836        C  0.32609182  0.51343495  0.92486396    -0.17500
C837        C  0.41404607  0.52346273  0.81758764    -0.17500
C838        C  0.39828217  0.66434818  0.81840470    -0.17500
C839        C  0.32362497  0.65517100  0.93118966    -0.17500
H840        H  0.33238349  0.44316753  0.88128509     0.15400
H841        H  0.37935233  0.44827270  0.82380054     0.15400
H842        H  0.30274811  0.72101250  0.88445531     0.15400
H843        H  0.34427579  0.72538986  0.82286522     0.15400
H844        H  0.31525576  0.54214298  0.00121758     0.13700
H845        H  0.31937588  0.61791697  0.00594833     0.13700
H846        H  0.47291608  0.56316826  0.77616849     0.13700
H847        H  0.46391403  0.63944188  0.77578001     0.13700
H848        H  0.37773397  0.55688273  0.88025368     0.27000
H849        H  0.37802067  0.62499188  0.88350615     0.27000
N850        N  0.53447498  0.37907638  0.88016050    -0.35800
N851        N  0.59064278  0.42350086  0.83638622    -0.56300
N852        N  0.65101644  0.38954764  0.88136745    -0.35800
N853        N  0.59549738  0.34598350  0.92663100    -0.56300
C854        C  0.51039027  0.39946766  0.85749328     0.27800
C855        C  0.51331660  0.35562414  0.90280991     0.27800
C856        C  0.67092913  0.41728836  0.86347056     0.27800
C857        C  0.67230088  0.37931260  0.91157151     0.27800
C858        C  0.55857067  0.43799661  0.82031881     0.36400
C859        C  0.62066857  0.44182885  0.82025708     0.36400
C860        C  0.56646004  0.32379208  0.93974842     0.36400
C861        C  0.62838860  0.33186984  0.94133864     0.36400
C862        C  0.47337730  0.38905590  0.86620005    -0.21100
C863        C  0.47518759  0.36156448  0.89446120    -0.21100
C864        C  0.70464148  0.42501307  0.88272242    -0.21100
C865        C  0.70542970  0.40103030  0.91323421    -0.21100
C866        C  0.56823872  0.46615734  0.79420476    -0.22100
C867        C  0.60714629  0.46890002  0.79451473    -0.22100
C868        C  0.58111598  0.29580154  0.96386591    -0.22100
C869        C  0.62014953  0.30083646  0.96474819    -0.22100
C870        C  0.52051013  0.42695409  0.82886690    -0.17500
C871        C  0.52704150  0.32834160  0.93025115    -0.17500
C872        C  0.66539114  0.34765306  0.93482988    -0.17500
C873        C  0.65975669  0.43642300  0.83045708    -0.17500
H874        H  0.44755346  0.40013691  0.85359437     0.15400
H875        H  0.45094483  0.34757232  0.90734535     0.15400
H876        H  0.72635418  0.44604979  0.87579558     0.15400
H877        H  0.72819495  0.39919651  0.93396296     0.15400
H878        H  0.54920681  0.48394994  0.77754797     0.13700
H879        H  0.62287109  0.49066534  0.77949644     0.13700
H880        H  0.56536972  0.27389065  0.97911245     0.13700
H881        H  0.64007188  0.28397516  0.98120774     0.13700
H882        H  0.56354473  0.38048507  0.87959523     0.27000
H883        H  0.62739298  0.37493606  0.87080060     0.27000
N884        N  0.37650837  0.36685148  0.71088372    -0.35800
N885        N  0.33617116  0.32097739  0.65323209    -0.56300
N886        N  0.38448278  0.35408570  0.59698926    -0.35800
N887        N  0.42599984  0.39948219  0.65235306    -0.56300
C888        C  0.35769916  0.34142165  0.73359937     0.27800
C889        C  0.40248377  0.38598277  0.73271261     0.27800
C890        C  0.36735162  0.32546561  0.57735602     0.27800
C891        C  0.41595750  0.36339180  0.57765327     0.27800
C892        C  0.31420235  0.31370801  0.68407257     0.36400
C893        C  0.31485106  0.31413754  0.62148105     0.36400
C894        C  0.43455211  0.42407349  0.68138331     0.36400
C895        C  0.43819939  0.41598514  0.61954171     0.36400
C896        C  0.37169194  0.34493689  0.77045631    -0.21100
C897        C  0.39960569  0.37294832  0.76992845    -0.21100
C898        C  0.38945262  0.31478954  0.54641183    -0.21100
C899        C  0.42030029  0.33906088  0.54656051    -0.21100
C900        C  0.27891213  0.30087003  0.67209383    -0.22100
C901        C  0.27896764  0.30193886  0.63280671    -0.22100
C902        C  0.45346339  0.45611709  0.66700367    -0.22100
C903        C  0.45544764  0.45116313  0.62782054    -0.22100
C904        C  0.32611811  0.31764204  0.72273879    -0.17500
C905        C  0.42679950  0.41673448  0.72059958    -0.17500
C906        C  0.43503441  0.39829965  0.58282047    -0.17500
C907        C  0.32930315  0.31581271  0.58314765    -0.17500
H908        H  0.36214760  0.32978111  0.79554307     0.15400
H909        H  0.41548668  0.38289483  0.79449564     0.15400
H910        H  0.38355201  0.29322643  0.52481799     0.15400
H911        H  0.44205627  0.34042775  0.52491946     0.15400
H912        H  0.25525796  0.29224537  0.68971332     0.13700
H913        H  0.25519984  0.29342255  0.61537720     0.13700
H914        H  0.46447816  0.48057322  0.68300891     0.13700
H915        H  0.46846388  0.47088295  0.60785072     0.13700
H916        H  0.36938215  0.37384172  0.68304453     0.27000
H917        H  0.37127801  0.37165282  0.61718159     0.27000
N918        N  0.37435784  0.36346703  0.04210809    -0.35800
N919        N  0.32621299  0.40050252  0.10002204    -0.56300
N920        N  0.36912018  0.36133965  0.15868207    -0.35800
N921        N  0.41556031  0.32175044  0.10145607    -0.56300
C922        C  0.34956944  0.38223747  0.01907829     0.27800
C923        C  0.39527917  0.33947485  0.01985317     0.27800
C924        C  0.33866801  0.37343109  0.17866870     0.27800
C925        C  0.38634257  0.33368636  0.17938625     0.27800
C926        C  0.31593592  0.42138450  0.06880505     0.36400
C927        C  0.31409410  0.42015339  0.13144929     0.36400
C928        C  0.43746558  0.31283478  0.07067532     0.36400
C929        C  0.43704148  0.31658012  0.13337683     0.36400
C930        C  0.35510934  0.37031888  0.98175408    -0.21100
C931        C  0.38388127  0.34374275  0.98230798    -0.21100
C932        C  0.33537615  0.35201193  0.21169154    -0.21100
C933        C  0.36541402  0.32670133  0.21209353    -0.21100
C934        C  0.29597929  0.45367238  0.08015040    -0.22100
C935        C  0.29512457  0.45320108  0.11930372    -0.22100
C936        C  0.47263000  0.30063666  0.08286887    -0.22100
C937        C  0.47272885  0.30375544  0.12195837    -0.22100
C938        C  0.32396266  0.41190281  0.03005775    -0.17500
C939        C  0.42662107  0.31647401  0.03162198    -0.17500
C940        C  0.42352471  0.32080593  0.17214511    -0.17500
C941        C  0.31877565  0.40754379  0.17046618    -0.17500
H942        H  0.34088956  0.38060855  0.95638917     0.15400
H943        H  0.39627042  0.33066045  0.95749784     0.15400
H944        H  0.31418636  0.35472055  0.23371361     0.15400
H945        H  0.37114266  0.30622553  0.23451543     0.15400
H946        H  0.28387902  0.47580078  0.06210919     0.13700
H947        H  0.28162349  0.47520828  0.13600162     0.13700
H948        H  0.49636707  0.29183849  0.06539855     0.13700
H949        H  0.49705344  0.29713748  0.13896709     0.13700
H950        H  0.37911349  0.36958580  0.07063169     0.27000
H951        H  0.38154609  0.37607554  0.13608406     0.27000
N952        N  0.37755062  0.20784038  0.87480684    -0.35800
N953        N  0.41842231  0.14946750  0.92094534    -0.56300
N954        N  0.37350384  0.09068185  0.88637399    -0.35800
N955        N  0.33090498  0.14719547  0.84146304    -0.56300
C956        C  0.39761426  0.23151942  0.89860854     0.27800
C957        C  0.35178052  0.22983273  0.85559316     0.27800
C958        C  0.38873133  0.07166043  0.91608759     0.27800
C959        C  0.34169751  0.07163142  0.87651683     0.27800
C960        C  0.44011044  0.18142316  0.92768975     0.36400
C961        C  0.43994307  0.11770281  0.92883561     0.36400
C962        C  0.31942120  0.17675058  0.81889833     0.36400
C963        C  0.31999718  0.11360035  0.82441726     0.36400
C964        C  0.38516247  0.26914931  0.89342088    -0.21100
C965        C  0.35632907  0.26811526  0.86673810    -0.21100
C966        C  0.36539832  0.04132475  0.92665661    -0.21100
C967        C  0.33537806  0.04144070  0.90171149    -0.21100
C968        C  0.47540929  0.17021392  0.94066090    -0.22100
C969        C  0.47562391  0.13034199  0.94046875    -0.22100
C970        C  0.29995513  0.16185363  0.78768051    -0.22100
C971        C  0.30055532  0.12194649  0.79102579    -0.22100
C972        C  0.42844661  0.22062823  0.92301936    -0.17500
C973        C  0.32564318  0.21684803  0.82683307    -0.17500
C974        C  0.32447697  0.07615224  0.84088858    -0.17500
C975        C  0.42574032  0.07836902  0.92875173    -0.17500
H976        H  0.39676791  0.29502864  0.90610921     0.15400
H977        H  0.34107209  0.29298923  0.85616649     0.15400
H978        H  0.36956290  0.02062880  0.94921066     0.15400
H979        H  0.31234610  0.02073584  0.90185058     0.15400
H980        H  0.49898767  0.18879978  0.94853435     0.13700
H981        H  0.49959308  0.11349221  0.94867843     0.13700
H982        H  0.28678857  0.17800035  0.76485207     0.13700
H983        H  0.28697810  0.10164073  0.77181355     0.13700
H984        H  0.38341937  0.17887841  0.86978555     0.27000
H985        H  0.38768500  0.11060976  0.86925347     0.27000
N986        N  0.21220884  0.36318489  0.87393921    -0.35800
N987        N  0.15510434  0.40708440  0.91793992    -0.56300
N988        N  0.09823128  0.38089042  0.86825544    -0.35800
N989        N  0.15499720  0.33901730  0.82070322    -0.56300
C990        C  0.23527849  0.38636257  0.89517533     0.27800
C991        C  0.23411718  0.34495201  0.84761399     0.27800
C992        C  0.07860921  0.40777745  0.88769003     0.27800
C993        C  0.08191265  0.37786688  0.83389344     0.27800
C994        C  0.18637214  0.41146534  0.94026292     0.36400
C995        C  0.12405216  0.41254713  0.94023695     0.36400
C996        C  0.18228270  0.31330253  0.81051942     0.36400
C997        C  0.12136681  0.32547880  0.80726713     0.36400
C998        C  0.27235417  0.38147992  0.88303113    -0.21100
C999        C  0.27165983  0.35579923  0.85304906    -0.21100
C1000       C  0.05005950  0.42308203  0.86513654    -0.21100
C1001       C  0.05205503  0.40385871  0.83089595    -0.21100
C1002       C  0.17539047  0.41978558  0.97716113    -0.22100
C1003       C  0.13620053  0.41919051  0.97747150    -0.22100
C1004       C  0.16600446  0.28368711  0.78917908    -0.22100
C1005       C  0.12732203  0.29113699  0.78751206    -0.22100
C1006       C  0.22455309  0.40922804  0.92727917    -0.17500
C1007       C  0.22154695  0.31733674  0.82004281    -0.17500
C1008       C  0.08600317  0.34500444  0.81148786    -0.17500
C1009       C  0.08586262  0.41684267  0.92571943    -0.17500
H1010       H  0.29768857  0.39317462  0.89598510     0.15400
H1011       H  0.29626550  0.34573120  0.83760357     0.15400
H1012       H  0.02948505  0.44499241  0.87259627     0.15400
H1013       H  0.03235244  0.40682550  0.80735344     0.15400
H1014       H  0.19359853  0.42480116  0.00158514     0.13700
H1015       H  0.11892989  0.42366771  0.00244626     0.13700
H1016       H  0.18036540  0.25906999  0.77670834     0.13700
H1017       H  0.10613074  0.27360193  0.77307983     0.13700
H1018       H  0.18384761  0.35739046  0.87945564     0.27000
H1019       H  0.11713928  0.36097252  0.87995832     0.27000
C1020       C  0.69399695  0.74942416  0.19567470     0.04000
C1021       C  0.72458155  0.73022380  0.17808804    -0.12200
C1022       C  0.73994404  0.69610735  0.19375670     0.01500
C1023       C  0.72369748  0.68092822  0.22734831    -0.10700
C1024       C  0.69274546  0.69940602  0.24533277     0.03900
C1025       C  0.67854183  0.73391916  0.22941866    -0.10100
H1026       H  0.73569494  0.74119319  0.15150265     0.09500
H1027       H  0.73416739  0.65383804  0.23864417     0.07100
H1028       H  0.65378615  0.74741114  0.24193539     0.06900
N1029       N  0.62457364  0.62574871  0.28815559    -0.35800
N1030       N  0.57986398  0.58537090  0.34783584    -0.56300
N1031       N  0.61344605  0.63437445  0.40500210    -0.35800
N1032       N  0.65526488  0.67835180  0.34518065    -0.56300
C1033       C  0.60296603  0.60235930  0.26566496     0.27800
C1034       C  0.64441137  0.64996971  0.26507234     0.27800
C1035       C  0.58656130  0.61772738  0.42683293     0.27800
C1036       C  0.62504945  0.66614689  0.42403361     0.27800
C1037       C  0.56682546  0.56602318  0.31647661     0.36400
C1038       C  0.56193486  0.57054130  0.37890131     0.36400
C1039       C  0.67670906  0.69023584  0.31532902     0.36400
C1040       C  0.67087006  0.69366415  0.37726249     0.36400
C1041       C  0.60995233  0.61130929  0.22782022    -0.21100
C1042       C  0.63573945  0.64117100  0.22746412    -0.21100
C1043       C  0.58094818  0.63933941  0.45972210    -0.21100
C1044       C  0.60528648  0.66999100  0.45792084    -0.21100
C1045       C  0.54018030  0.53895974  0.32752481    -0.22100
C1046       C  0.53683250  0.54202823  0.36640894    -0.22100
C1047       C  0.70540480  0.71443332  0.32849132    -0.22100
C1048       C  0.70195155  0.71624347  0.36766713    -0.22100
C1049       C  0.57678223  0.57327216  0.27767342    -0.17500
C1050       C  0.67090064  0.67921665  0.27649698    -0.17500
C1051       C  0.65673241  0.68842850  0.41486984    -0.17500
C1052       C  0.56616970  0.58409784  0.41777488    -0.17500
H1053       H  0.59790832  0.59765401  0.20278786     0.15400
H1054       H  0.64691263  0.65467331  0.20216923     0.15400
H1055       H  0.56112959  0.63393277  0.48256566     0.15400
H1056       H  0.60870896  0.69224988  0.47950365     0.15400
H1057       H  0.52382181  0.51971625  0.30933901     0.13700
H1058       H  0.51641953  0.52605509  0.38258015     0.13700
H1059       H  0.72700962  0.72865447  0.31172642     0.13700
H1060       H  0.72007154  0.73249713  0.38689141     0.13700
H1061       H  0.62700685  0.62371035  0.31740063     0.27000
H1062       H  0.62687849  0.62227123  0.38151351     0.27000
C1063       C  0.74663597  0.55540556  0.05205663     0.04000
C1064       C  0.73133430  0.57499405  0.02044317    -0.12200
C1065       C  0.69710572  0.56273119  0.00325551     0.01500
C1066       C  0.67826066  0.52985579  0.01816652    -0.10700
C1067       C  0.69353016  0.50925099  0.04950579     0.03900
C1068       C  0.72799896  0.52212238  0.06574739    -0.10100
H1069       H  0.74473046  0.60145761  0.01082043     0.09500
H1070       H  0.65105317  0.52120618  0.00635646     0.07100
H1071       H  0.73890930  0.50787782  0.09093419     0.06900
C1072       C  0.50824525  0.70443722  0.05785590     0.04000
C1073       C  0.52621235  0.68832547  0.02564853    -0.12200
C1074       C  0.55700301  0.70727976  0.00800680     0.01500
C1075       C  0.57024336  0.74278080  0.02392216    -0.10700
C1076       C  0.55266256  0.75968963  0.05629491     0.03900
C1077       C  0.52097922  0.74053160  0.07215628    -0.10100
H1078       H  0.51710966  0.66024124  0.01513644     0.09500
H1079       H  0.59567090  0.75599536  0.01252595     0.07100
H1080       H  0.50836922  0.75201980  0.09792726     0.06900
C1081       C  0.55718372  0.50240533  0.19533588     0.04000
C1082       C  0.57241871  0.51826934  0.22936406    -0.12200
C1083       C  0.55621432  0.55149741  0.24644498     0.01500
C1084       C  0.52422336  0.56862439  0.22922034    -0.10700
C1085       C  0.50879946  0.55389094  0.19503521     0.03900
C1086       C  0.52516803  0.52049806  0.17858961    -0.10100
H1087       H  0.59828331  0.50630067  0.24117611     0.09500
H1088       H  0.51282695  0.59512909  0.24115636     0.07100
H1089       H  0.51440392  0.50991780  0.15151589     0.06900
N1090       N  0.46768967  0.62930988  0.12683044    -0.35800
N1091       N  0.40968634  0.59015761  0.17269356    -0.56300
N1092       N  0.35487069  0.64172287  0.14112924    -0.35800
N1093       N  0.41078001  0.68209829  0.09602333    -0.56300
C1094       C  0.49026094  0.60655035  0.14892891     0.27800
C1095       C  0.49035487  0.65347096  0.10631451     0.27800
C1096       C  0.33497261  0.62567774  0.16952791     0.27800
C1097       C  0.33714087  0.67491387  0.13251369     0.27800
C1098       C  0.43967288  0.56808616  0.18291096     0.36400
C1099       C  0.37779219  0.57240818  0.18544271     0.36400
C1100       C  0.43965666  0.69134425  0.07254573     0.36400
C1101       C  0.37840970  0.69579843  0.08016721     0.36400
C1102       C  0.52781917  0.61600320  0.14159960    -0.21100
C1103       C  0.52789397  0.64499820  0.11473719    -0.21100
C1104       C  0.30503929  0.64917980  0.18006886    -0.21100
C1105       C  0.30653771  0.68063468  0.15678405    -0.21100
C1106       C  0.42674755  0.53646621  0.20348114    -0.22100
C1107       C  0.38754538  0.53896801  0.20465742    -0.22100
C1108       C  0.42564248  0.71214704  0.04182545    -0.22100
C1109       C  0.38667185  0.71445771  0.04637787    -0.22100
C1110       C  0.47843492  0.57651685  0.17453800    -0.17500
C1111       C  0.47841751  0.68199984  0.07917559    -0.17500
C1112       C  0.34247702  0.69414297  0.09815242    -0.17500
C1113       C  0.34069815  0.58833727  0.18267914    -0.17500
H1114       H  0.55279980  0.60296541  0.15381802     0.15400
H1115       H  0.55293604  0.65753984  0.10210813     0.15400
H1116       H  0.28363780  0.64365248  0.20140421     0.15400
H1117       H  0.28605672  0.70386052  0.15668170     0.15400
H1118       H  0.44374832  0.51385612  0.21617902     0.13700
H1119       H  0.36861196  0.51930116  0.21917818     0.13700
H1120       H  0.44175080  0.72400530  0.01841210     0.13700
H1121       H  0.36693187  0.72906100  0.02765467     0.13700
H1122       H  0.43848814  0.62682969  0.12408520     0.27000
H1123       H  0.37427986  0.62723264  0.12386941     0.27000
N1124       N  0.62500080  0.46340147  0.11994072    -0.35800
N1125       N  0.66124772  0.40634360  0.06969346    -0.56300
N1126       N  0.62264733  0.34718612  0.11284725    -0.35800
N1127       N  0.58693426  0.40155604  0.16218641    -0.56300
C1128       C  0.64198684  0.48735648  0.09440883     0.27800
C1129       C  0.60106117  0.48497021  0.14166014     0.27800
C1130       C  0.63323559  0.32934781  0.08056603     0.27800
C1131       C  0.59445988  0.32605020  0.12771258     0.27800
C1132       C  0.68295554  0.43804115  0.06277432     0.36400
C1133       C  0.68284135  0.37453348  0.06260651     0.36400
C1134       C  0.57590461  0.43200251  0.18397085     0.36400
C1135       C  0.57938613  0.36842429  0.18156373     0.36400
C1136       C  0.62916584  0.52476106  0.10045722    -0.21100
C1137       C  0.60363537  0.52327443  0.13002322    -0.21100
C1138       C  0.60996326  0.29792784  0.07311716    -0.21100
C1139       C  0.58515025  0.29581897  0.10297458    -0.21100
C1140       C  0.71820366  0.42655405  0.04992771    -0.22100
C1141       C  0.71851123  0.38668084  0.05076575    -0.22100
C1142       C  0.56016418  0.41801215  0.21738746    -0.22100
C1143       C  0.56276874  0.37792263  0.21603323    -0.22100
C1144       C  0.67147875  0.47711325  0.06846485    -0.17500
C1145       C  0.57873088  0.47189757  0.17321936    -0.17500
C1146       C  0.58318119  0.33033174  0.16573219    -0.17500
C1147       C  0.66896321  0.33542993  0.06532376    -0.17500
H1148       H  0.63807726  0.55078298  0.08593208     0.15400
H1149       H  0.58954897  0.54805307  0.14226355     0.15400
H1150       H  0.61185452  0.27741605  0.04984332     0.15400
H1151       H  0.56384244  0.27355314  0.10595527     0.15400
H1152       H  0.74187057  0.44488542  0.04218672     0.13700
H1153       H  0.74271537  0.36952544  0.04337213     0.13700
H1154       H  0.54798943  0.43486823  0.24032156     0.13700
H1155       H  0.55205513  0.35813981  0.23715561     0.13700
H1156       H  0.63201084  0.43469401  0.12447214     0.27000
H1157       H  0.63906300  0.36739700  0.12783957     0.27000
N1158       N  0.62870084  0.63764990  0.96426920    -0.35800
N1159       N  0.67923554  0.60736091  0.90578175    -0.56300
N1160       N  0.63461384  0.64919831  0.84964966    -0.35800
N1161       N  0.58634657  0.68137645  0.90645210    -0.56300
C1162       C  0.65430006  0.61827195  0.98601326     0.27800
C1163       C  0.61031133  0.66339478  0.98708459     0.27800
C1164       C  0.66680948  0.64234521  0.83038582     0.27800
C1165       C  0.61469063  0.67499192  0.82916001     0.27800
C1166       C  0.68801668  0.58237421  0.93419556     0.36400
C1167       C  0.69353653  0.59256781  0.87291098     0.36400
C1168       C  0.56550649  0.68941947  0.93802236     0.36400
C1169       C  0.56350319  0.68574835  0.87534395     0.36400
C1170       C  0.65174387  0.63146731  0.02330713    -0.21100
C1171       C  0.62439534  0.66001922  0.02391864    -0.21100
C1172       C  0.66844066  0.66531495  0.79827265    -0.21100
C1173       C  0.63534077  0.68593499  0.79734509    -0.21100
C1174       C  0.70916217  0.55202121  0.91942515    -0.22100
C1175       C  0.71254277  0.55840334  0.88067844    -0.22100
C1176       C  0.52932279  0.70015178  0.92708898    -0.22100
C1177       C  0.52769150  0.69697059  0.88786607    -0.22100
C1178       C  0.67863613  0.58781124  0.97340404    -0.17500
C1179       C  0.57872119  0.68699321  0.97650422    -0.17500
C1180       C  0.57645356  0.68323905  0.83636426    -0.17500
C1181       C  0.68955917  0.61001468  0.83631189    -0.17500
H1182       H  0.66777998  0.62149156  0.04770418     0.15400
H1183       H  0.61518001  0.67565718  0.04900518     0.15400
H1184       H  0.69009587  0.66521226  0.77647819     0.15400
H1185       H  0.62760861  0.70564194  0.77492379     0.15400
H1186       H  0.72083517  0.52776430  0.93491003     0.13700
H1187       H  0.72738073  0.54008415  0.86062316     0.13700
H1188       H  0.50612154  0.70845948  0.94548361     0.13700
H1189       H  0.50283254  0.70357444  0.87120766     0.13700
H1190       H  0.62155677  0.63060927  0.93638372     0.27000
H1191       H  0.62339221  0.63170977  0.87092595     0.27000
N1192       N  0.78531266  0.62472864  0.12521412    -0.35800
N1193       N  0.84600218  0.58474524  0.08468887    -0.56300
N1194       N  0.90089176  0.63016276  0.12734195    -0.35800
N1195       N  0.84063513  0.66871585  0.16841182    -0.56300
C1196       C  0.76546047  0.59577203  0.10814405     0.27800
C1197       C  0.76279233  0.64073703  0.15237923     0.27800
C1198       C  0.92108206  0.59968341  0.11514422     0.27800
C1199       C  0.91890564  0.64412789  0.15837307     0.27800
C1200       C  0.81593564  0.57225660  0.06369062     0.36400
C1201       C  0.87803013  0.57672396  0.06475477     0.36400
C1202       C  0.80888221  0.68990604  0.17476437     0.36400
C1203       C  0.87086031  0.69249119  0.17401046     0.36400
C1204       C  0.72977450  0.59343852  0.12480688    -0.21100
C1205       C  0.72820120  0.62160173  0.15265495    -0.21100
C1206       C  0.95125561  0.59302484  0.13993243    -0.21100
C1207       C  0.94977935  0.62125625  0.16738673    -0.21100
C1208       C  0.82896855  0.55507715  0.03045162    -0.22100
C1209       C  0.86819626  0.55796702  0.03104904    -0.22100
C1210       C  0.81872364  0.72743177  0.18443088    -0.22100
C1211       C  0.85770845  0.72944576  0.18287474    -0.22100
C1212       C  0.77724293  0.57445222  0.07540602    -0.17500
C1213       C  0.77140136  0.67487198  0.17351555    -0.17500
C1214       C  0.90947131  0.67920922  0.17551078    -0.17500
C1215       C  0.91559160  0.58292781  0.07915812    -0.17500
H1216       H  0.70657456  0.57434099  0.11716996     0.15400
H1217       H  0.70376216  0.62803783  0.17005090     0.15400
H1218       H  0.97230654  0.57039487  0.13907013     0.15400
H1219       H  0.96932957  0.62437065  0.19103975     0.15400
H1220       H  0.81205497  0.54144914  0.00830871     0.13700
H1221       H  0.88706023  0.54633122  0.00967972     0.13700
H1222       H  0.79990863  0.75116572  0.19116885     0.13700
H1223       H  0.87402363  0.75557446  0.18762459     0.13700
H1224       H  0.81070853  0.63624574  0.11533091     0.27000
H1225       H  0.87957675  0.64420850  0.11200121     0.27000
N1226       N  0.62496440  0.79764952  0.12756294    -0.35800
N1227       N  0.66580558  0.85256002  0.17646526    -0.56300
N1228       N  0.62006714  0.91254007  0.14557580    -0.35800
N1229       N  0.58004165  0.86023025  0.09611721    -0.56300
C1230       C  0.64183221  0.77355544  0.15304225     0.27800
C1231       C  0.59734023  0.77713303  0.10932326     0.27800
C1232       C  0.63559789  0.92930997  0.17645757     0.27800
C1233       C  0.58973416  0.93381182  0.13641068     0.27800
C1234       C  0.68760869  0.82067754  0.18068482     0.36400
C1235       C  0.68780115  0.88391204  0.18437056     0.36400
C1236       C  0.56605918  0.83112157  0.07382616     0.36400
C1237       C  0.56577678  0.89440301  0.08327666     0.36400
C1238       C  0.62489535  0.73742363  0.15073835    -0.21100
C1239       C  0.59721547  0.73960946  0.12322593    -0.21100
C1240       C  0.61331451  0.96000816  0.18865025    -0.21100
C1241       C  0.58425828  0.96302862  0.16292132    -0.21100
C1242       C  0.72373507  0.83139729  0.19211646    -0.22100
C1243       C  0.72419541  0.87138060  0.19359892    -0.22100
C1244       C  0.54142157  0.84678962  0.04722852    -0.22100
C1245       C  0.54087770  0.88651259  0.05358360    -0.22100
C1246       C  0.67422459  0.78225219  0.17587170    -0.17500
C1247       C  0.57306915  0.79063547  0.07956893    -0.17500
C1248       C  0.57225200  0.93152446  0.10110116    -0.17500
C1249       C  0.67322054  0.92258192  0.18648656    -0.17500
H1250       H  0.63218143  0.71174778  0.16656889     0.15400
H1251       H  0.57918952  0.71594042  0.11453817     0.15400
H1252       H  0.61810902  0.97965874  0.21218679     0.15400
H1253       H  0.56284251  0.98540473  0.16270815     0.15400
H1254       H  0.74741016  0.81246960  0.19819198     0.13700
H1255       H  0.74857275  0.88844335  0.20167164     0.13700
H1256       H  0.52429502  0.83111418  0.02661581     0.13700
H1257       H  0.52191958  0.90665684  0.04001346     0.13700
H1258       H  0.63447768  0.82510843  0.12017715     0.27000
H1259       H  0.63395873  0.89345948  0.12724016     0.27000
O1260       O  0.69091898  0.48376236  0.67305493    -0.77700
C1261       C  0.80475041  0.55436184  0.67828292     0.83400
O1262       O  0.80368659  0.44765115  0.73248468    -0.78800
O1263       O  0.81652168  0.54893822  0.77371633    -0.80300
O1264       O  0.67863577  0.57267656  0.78010712    -0.80100
O1265       O  0.66355571  0.47491160  0.72904597    -0.78700
Zn1266     Zn  0.74183508  0.49658037  0.69442895     1.55700
O1267       O  0.73813608  0.59112880  0.79293987    -0.80100
Cd1268     Cd  0.69044474  0.51798969  0.76050008     1.59700
Cd1269     Cd  0.76848730  0.47491730  0.77669053     1.59600
O1270       O  0.68638636  0.49482700  0.81117115    -0.80100
O1271       O  0.74178184  0.51266447  0.74475006    -1.90600
Cd1272     Cd  0.76701161  0.56167986  0.74990175     1.59900
O1273       O  0.72042076  0.44296350  0.79807229    -0.80000
O1274       O  0.79093543  0.57990466  0.70055985    -0.78700
C1275       C  0.79022278  0.43820417  0.69939471     0.83800
C1276       C  0.66991952  0.46371364  0.69520611     0.83500
O1277       O  0.78777562  0.52248421  0.67187366    -0.77600
C1278       C  0.70297391  0.59022841  0.80131387     0.84300
O1279       O  0.75597703  0.44389285  0.69256591    -0.77700
C1280       C  0.69012655  0.45878014  0.81148508     0.84400
C1281       C  0.81109461  0.54482391  0.80851771     0.84800
O1282       O  0.79335370  0.51416570  0.81900842    -0.80200
O1283       O  0.91323985  0.01283044  0.45928061    -0.77700
C1284       C  0.92713424  0.94874694  0.56137983     0.83400
O1285       O  0.97939637  0.06137582  0.56307096    -0.78800
O1286       O  0.01167120  0.95316880  0.56668521    -0.80300
O1287       O  0.04123137  0.95507727  0.43263313    -0.80100
O1288       O  0.95742195  0.03283263  0.42033800    -0.78700
Zn1289     Zn  0.94078448  0.01330255  0.50672765     1.55700
O1290       O  0.03995377  0.92332691  0.48761362    -0.80100
Cd1291     Cd  0.99784596  0.99516790  0.44232048     1.59700
Cd1292     Cd  0.02290206  0.03388555  0.52613082     1.59600
O1293       O  0.03355984  0.03485924  0.42903523    -0.80100
O1294       O  0.98964942  0.99946209  0.49644742    -1.90600
Cd1295     Cd  0.99237955  0.94742974  0.51465118     1.59900
O1296       O  0.04884467  0.06890438  0.48106931    -0.80000
O1297       O  0.94308906  0.92568737  0.53767871    -0.78700
C1298       C  0.94636078  0.07189783  0.55055449     0.83800
C1299       C  0.92718678  0.03969127  0.43875848     0.83500
O1300       O  0.92501975  0.98468393  0.55453981    -0.77600
C1301       C  0.05654233  0.93198932  0.45655415     0.84300
O1302       O  0.93905891  0.06737845  0.51615068    -0.77700
C1303       C  0.04966173  0.06321776  0.44452569     0.84400
C1304       C  0.04665616  0.95749534  0.56498305     0.84800
O1305       O  0.05978968  0.98927361  0.55088190    -0.80200
C1306       C  0.55614152  0.05608068  0.74862012     0.04000
C1307       C  0.57002980  0.02149587  0.73257709    -0.12200
C1308       C  0.55215413  0.00436222  0.70072706     0.01500
C1309       C  0.51953204  0.02219317  0.68519098    -0.10700
C1310       C  0.50514781  0.05687412  0.70091843     0.03900
C1311       C  0.52359750  0.07341208  0.73278010    -0.10100
H1312       H  0.59609772  0.00912383  0.74352688     0.09500
H1313       H  0.50660675  0.01025543  0.65963991     0.07100
H1314       H  0.51368264  0.10078815  0.74412631     0.06900
C1315       C  0.74325312  0.05518574  0.56309678     0.04000
C1316       C  0.72430181  0.07044843  0.53090970    -0.12200
C1317       C  0.69161627  0.05240671  0.51546527     0.01500
C1318       C  0.67849743  0.01768898  0.53196033    -0.10700
C1319       C  0.69633574  0.00154989  0.56439585     0.03900
C1320       C  0.72879936  0.02071314  0.57973035    -0.10100
H1321       H  0.73403747  0.09752393  0.51889579     0.09500
H1322       H  0.65271861  0.00447335  0.52098590     0.07100
H1323       H  0.74154554  0.01001102  0.60573296     0.06900
C1324       C  0.55077408  0.24690685  0.55649182     0.04000
C1325       C  0.51741344  0.23150258  0.57275649    -0.12200
C1326       C  0.49967811  0.19802254  0.55770501     0.01500
C1327       C  0.51543320  0.18035058  0.52492136    -0.10700
C1328       C  0.54857671  0.19528786  0.50746915     0.03900
C1329       C  0.56604380  0.22857114  0.52377291    -0.10100
H1330       H  0.50654683  0.24422142  0.59877932     0.09500
H1331       H  0.50329071  0.15347768  0.51441836     0.07100
H1332       H  0.59255335  0.23905331  0.51212609     0.06900
N1333       N  0.61885176  0.12042657  0.46959184    -0.35800
N1334       N  0.57393280  0.15616441  0.40799793    -0.56300
N1335       N  0.61785959  0.11147525  0.35275990    -0.35800
N1336       N  0.66130082  0.07491069  0.41340586    -0.56300
C1337       C  0.59588231  0.14354707  0.49086625     0.27800
C1338       C  0.64105288  0.09943547  0.49370585     0.27800
C1339       C  0.58894375  0.12379456  0.33083523     0.27800
C1340       C  0.63445987  0.08278311  0.33295991     0.27800
C1341       C  0.56103788  0.17798820  0.43759551     0.36400
C1342       C  0.56117846  0.17225291  0.37501225     0.36400
C1343       C  0.67760200  0.06032381  0.44538783     0.36400
C1344       C  0.67715605  0.05673157  0.38302852     0.36400
C1345       C  0.60369388  0.13692653  0.52909229    -0.21100
C1346       C  0.63195040  0.10948829  0.53081385    -0.21100
C1347       C  0.58657460  0.10222156  0.29749760    -0.21100
C1348       C  0.61541585  0.07619519  0.29883540    -0.21100
C1349       C  0.53899425  0.20780812  0.42313731    -0.22100
C1350       C  0.53935267  0.20437440  0.38372817    -0.22100
C1351       C  0.70349632  0.03208014  0.43532347    -0.22100
C1352       C  0.70292387  0.02950525  0.39622951    -0.22100
C1353       C  0.56899138  0.17155329  0.47732221    -0.17500
C1354       C  0.66939542  0.07148449  0.48366265    -0.17500
C1355       C  0.66707023  0.06297935  0.34390414    -0.17500
C1356       C  0.56783868  0.15706807  0.33751291    -0.17500
H1357       H  0.59082990  0.15081784  0.55347928     0.15400
H1358       H  0.64457948  0.09854951  0.55664896     0.15400
H1359       H  0.56663134  0.10555608  0.27419993     0.15400
H1360       H  0.62173133  0.05492744  0.27701941     0.15400
H1361       H  0.52453655  0.23005809  0.43927335     0.13700
H1362       H  0.52486228  0.22310597  0.36384583     0.13700
H1363       H  0.72039758  0.01434344  0.45419530     0.13700
H1364       H  0.71822300  0.00807462  0.38014192     0.13700
H1365       H  0.61989532  0.11976999  0.44023862     0.27000
H1366       H  0.62903190  0.12554659  0.37658410     0.27000
N1367       N  0.46074271  0.12733990  0.63096290    -0.35800
N1368       N  0.40374506  0.08820161  0.67869421    -0.56300
N1369       N  0.34432244  0.13136910  0.64221105    -0.35800
N1370       N  0.40091953  0.17321323  0.59626874    -0.56300
C1371       C  0.48423693  0.10742026  0.65447337     0.27800
C1372       C  0.48241316  0.15122704  0.60935995     0.27800
C1373       C  0.32394283  0.11461261  0.67006070     0.27800
C1374       C  0.32292191  0.16019236  0.62839663     0.27800
C1375       C  0.43536996  0.06936382  0.69084084     0.36400
C1376       C  0.37316777  0.06928999  0.69321618     0.36400
C1377       C  0.43027266  0.18613168  0.57466123     0.36400
C1378       C  0.36835031  0.18748231  0.58109604     0.36400
C1379       C  0.52142524  0.11834594  0.64721107    -0.21100
C1380       C  0.52025020  0.14555919  0.61881851    -0.21100
C1381       C  0.28969888  0.13380424  0.67467653    -0.21100
C1382       C  0.28902808  0.16257388  0.64818372    -0.21100
C1383       C  0.42501644  0.03948412  0.71463508    -0.22100
C1384       C  0.38606910  0.03933476  0.71602879    -0.22100
C1385       C  0.41626357  0.20982976  0.54619733    -0.22100
C1386       C  0.37725323  0.21064426  0.55027175    -0.22100
C1387       C  0.47364644  0.07854838  0.68133964    -0.17500
C1388       C  0.46953029  0.17749525  0.58077355    -0.17500
C1389       C  0.33092547  0.18115979  0.59554638    -0.17500
C1390       C  0.33402570  0.07994310  0.68777418    -0.17500
H1391       H  0.54698296  0.10757576  0.66061771     0.15400
H1392       H  0.54469505  0.15919633  0.60626329     0.15400
H1393       H  0.26726446  0.12825774  0.69478067     0.15400
H1394       H  0.26580346  0.18246532  0.64343843     0.15400
H1395       H  0.44360937  0.01977077  0.72958160     0.13700
H1396       H  0.36977886  0.01999920  0.73331771     0.13700
H1397       H  0.43243707  0.22509326  0.52482921     0.13700
H1398       H  0.35780151  0.22736509  0.53319697     0.13700
H1399       H  0.43175939  0.12264404  0.62789946     0.27000
H1400       H  0.36812582  0.11970661  0.62891805     0.27000
C1401       C  0.69420311  0.20375870  0.74603452     0.04000
C1402       C  0.67745517  0.23735451  0.73063223    -0.12200
C1403       C  0.69296360  0.25589276  0.69840483     0.01500
C1404       C  0.72640502  0.24014573  0.68194896    -0.10700
C1405       C  0.74419371  0.20669340  0.69729154     0.03900
C1406       C  0.72765947  0.18907399  0.72940768    -0.10100
H1407       H  0.65091024  0.24770768  0.74231672     0.09500
H1408       H  0.73729391  0.25253519  0.65590321     0.07100
H1409       H  0.73968327  0.16244268  0.74021517     0.06900
N1410       N  0.62049891  0.29396180  0.62678854    -0.35800
N1411       N  0.65339827  0.35624088  0.67283480    -0.56300
N1412       N  0.60654989  0.41130133  0.63145328    -0.35800
N1413       N  0.57218247  0.35053741  0.58685456    -0.56300
C1414       C  0.64089755  0.27261813  0.65209017     0.27800
C1415       C  0.59668959  0.26952948  0.60762354     0.27800
C1416       C  0.61748883  0.43290155  0.66140918     0.27800
C1417       C  0.57717930  0.42994375  0.61527427     0.27800
C1418       C  0.67535154  0.32676831  0.68598582     0.36400
C1419       C  0.66735474  0.39001157  0.68744155     0.36400
C1420       C  0.56542599  0.31828694  0.56544063     0.36400
C1421       C  0.56362165  0.38189927  0.56509353     0.36400
C1422       C  0.63026113  0.23405358  0.64827975    -0.21100
C1423       C  0.60262085  0.23219255  0.62049806    -0.21100
C1424       C  0.59399114  0.46472495  0.66550002    -0.21100
C1425       C  0.56812556  0.46269211  0.63638999    -0.21100
C1426       C  0.70284923  0.34191304  0.71023754    -0.22100
C1427       C  0.69768853  0.38167931  0.71127826    -0.22100
C1428       C  0.55136375  0.32887257  0.53031901    -0.22100
C1429       C  0.55117798  0.36869849  0.52966542    -0.22100
C1430       C  0.66970740  0.28637884  0.67775510    -0.17500
C1431       C  0.57174429  0.27934372  0.57696537    -0.17500
C1432       C  0.56449549  0.42154376  0.57845443    -0.17500
C1433       C  0.65135799  0.42766351  0.68117513    -0.17500
H1434       H  0.64143753  0.20948392  0.66360322     0.15400
H1435       H  0.58935560  0.20600216  0.61014649     0.15400
H1436       H  0.59614096  0.48770874  0.68648414     0.15400
H1437       H  0.54604212  0.48367270  0.63122845     0.15400
H1438       H  0.72395170  0.32592692  0.72614771     0.13700
H1439       H  0.71326822  0.40177010  0.72911861     0.13700
H1440       H  0.54328048  0.30991576  0.50700584     0.13700
H1441       H  0.54228199  0.38506548  0.50542360     0.13700
H1442       H  0.62492341  0.32290366  0.62054421     0.27000
H1443       H  0.62269182  0.38968311  0.61860348     0.27000
N1444       N  0.62340688  0.95994597  0.63326970    -0.35800
N1445       N  0.66343886  0.89978302  0.59272517    -0.56300
N1446       N  0.61517896  0.84299743  0.63025867    -0.35800
N1447       N  0.57429441  0.90123787  0.67030517    -0.56300
C1448       C  0.64392364  0.98219417  0.60891232     0.27800
C1449       C  0.59686084  0.98292597  0.64977847     0.27800
C1450       C  0.62917307  0.82292543  0.60073922     0.27800
C1451       C  0.58425905  0.82368807  0.64232475     0.27800
C1452       C  0.68558068  0.93017887  0.58215168     0.36400
C1453       C  0.68206090  0.86654111  0.58389074     0.36400
C1454       C  0.56666991  0.93316207  0.69159042     0.36400
C1455       C  0.56641391  0.86957312  0.69189700     0.36400
C1456       C  0.63053635  0.01989715  0.61080068    -0.21100
C1457       C  0.60097655  0.02033882  0.63620698    -0.21100
C1458       C  0.60539934  0.79170558  0.59245722    -0.21100
C1459       C  0.57699677  0.79221063  0.61894731    -0.21100
C1460       C  0.71832420  0.91609926  0.56538239    -0.22100
C1461       C  0.71626776  0.87598352  0.56684547    -0.22100
C1462       C  0.55293094  0.92199936  0.72667320    -0.22100
C1463       C  0.55364307  0.88205209  0.72726613    -0.22100
C1464       C  0.67554110  0.97016580  0.58635024    -0.17500
C1465       C  0.57170458  0.97216856  0.67961334    -0.17500
C1466       C  0.56843613  0.83030849  0.67800033    -0.17500
C1467       C  0.66620959  0.82840835  0.58731066    -0.17500
H1468       H  0.64146676  0.04494965  0.59620903     0.15400
H1469       H  0.58516705  0.04578107  0.64454851     0.15400
H1470       H  0.60819976  0.76982334  0.57061764     0.15400
H1471       H  0.55451354  0.77100808  0.62118740     0.15400
H1472       H  0.74123100  0.93294485  0.55334668     0.13700
H1473       H  0.73684426  0.85613297  0.55528165     0.13700
H1474       H  0.54425341  0.94067440  0.74987604     0.13700
H1475       H  0.54516382  0.86488073  0.75122642     0.13700
H1476       H  0.62938507  0.93173484  0.64123037     0.27000
H1477       H  0.63010598  0.86388949  0.64587119     0.27000
N1478       N  0.78592533  0.13229453  0.62895796    -0.35800
N1479       N  0.84533155  0.17820894  0.66749614    -0.56300
N1480       N  0.90358706  0.13351565  0.62653857    -0.35800
N1481       N  0.84474019  0.09050721  0.58644956    -0.56300
C1482       C  0.76376998  0.15908078  0.64661867     0.27800
C1483       C  0.76319315  0.11030863  0.60608819     0.27800
C1484       C  0.92318496  0.16354568  0.64142782     0.27800
C1485       C  0.92389833  0.12060158  0.59669999     0.27800
C1486       C  0.81417143  0.18886136  0.68797225     0.36400
C1487       C  0.87664314  0.18383074  0.68988037     0.36400
C1488       C  0.81360954  0.07048226  0.57376784     0.36400
C1489       C  0.87610851  0.07469112  0.56986090     0.36400
C1490       C  0.72642800  0.15373923  0.63492585    -0.21100
C1491       C  0.72602384  0.12299835  0.60984017    -0.21100
C1492       C  0.95550019  0.17059673  0.62009346    -0.21100
C1493       C  0.95600047  0.14328044  0.59183444    -0.21100
C1494       C  0.82564686  0.20224629  0.72328924    -0.22100
C1495       C  0.86457354  0.19806540  0.72495075    -0.22100
C1496       C  0.82517434  0.04213137  0.54855261    -0.22100
C1497       C  0.86407074  0.04506216  0.54574308    -0.22100
C1498       C  0.77539933  0.18556234  0.67581176    -0.17500
C1499       C  0.77460819  0.07870910  0.58232709    -0.17500
C1500       C  0.91490645  0.08818021  0.57449509    -0.17500
C1501       C  0.91551284  0.17934896  0.67718769    -0.17500
H1502       H  0.70166235  0.16953135  0.64430453     0.15400
H1503       H  0.70092772  0.11124700  0.59619171     0.15400
H1504       H  0.97671771  0.19290442  0.62403771     0.15400
H1505       H  0.97757178  0.14052724  0.57013373     0.15400
H1506       H  0.80773062  0.21250255  0.74616155     0.13700
H1507       H  0.88125839  0.20519564  0.74963118     0.13700
H1508       H  0.80732763  0.02221459  0.53262693     0.13700
H1509       H  0.88068226  0.02807469  0.52643301     0.13700
H1510       H  0.81432259  0.12712836  0.63461317     0.27000
H1511       H  0.88087493  0.11936752  0.63942159     0.27000
N1512       N  0.62609569  0.12974173  0.78833157    -0.35800
N1513       N  0.67271375  0.16889092  0.84614229    -0.56300
N1514       N  0.63977879  0.12015843  0.90281159    -0.35800
N1515       N  0.59432297  0.07964088  0.84701307    -0.56300
C1516       C  0.65000061  0.14993976  0.76544554     0.27800
C1517       C  0.60703007  0.10370126  0.76625700     0.27800
C1518       C  0.66846350  0.13634791  0.92259723     0.27800
C1519       C  0.62947881  0.08843648  0.92209667     0.27800
C1520       C  0.68101783  0.19124246  0.81556199     0.36400
C1521       C  0.68309947  0.18893929  0.87798039     0.36400
C1522       C  0.57212274  0.06800170  0.81754733     0.36400
C1523       C  0.57930980  0.06455016  0.87920542     0.36400
C1524       C  0.64537846  0.13704326  0.72821392    -0.21100
C1525       C  0.61836586  0.10810890  0.72870300    -0.21100
C1526       C  0.67753311  0.11359909  0.95384364    -0.21100
C1527       C  0.65269225  0.08319626  0.95348044    -0.21100
C1528       C  0.69808259  0.22517710  0.82773595    -0.22100
C1529       C  0.69898387  0.22403621  0.86691932    -0.22100
C1530       C  0.54338596  0.04421744  0.83098319    -0.22100
C1531       C  0.54795896  0.04208104  0.87001823    -0.22100
C1532       C  0.67437610  0.18107109  0.77675461    -0.17500
C1533       C  0.57876413  0.07690169  0.77862222    -0.17500
C1534       C  0.59549710  0.06901564  0.91610873    -0.17500
C1535       C  0.68087209  0.17412782  0.91619449    -0.17500
H1536       H  0.65971825  0.14754884  0.70310223     0.15400
H1537       H  0.60827101  0.09214052  0.70405234     0.15400
H1538       H  0.69877255  0.11840347  0.97560170     0.15400
H1539       H  0.65058956  0.06089584  0.97492863     0.15400
H1540       H  0.70855005  0.24857257  0.81024780     0.13700
H1541       H  0.71131809  0.24643358  0.88436617     0.13700
H1542       H  0.52182344  0.02938038  0.81434336     0.13700
H1543       H  0.53148614  0.02427554  0.88899040     0.13700
H1544       H  0.62057519  0.13571138  0.81672406     0.27000
H1545       H  0.62334450  0.13408590  0.88232867     0.27000
C1546       C  0.00421312  0.69673760  0.55200789     0.04000
C1547       C  0.02180662  0.68133694  0.51925417    -0.12200
C1548       C  0.05408792  0.69916495  0.50336556     0.01500
C1549       C  0.06839796  0.73334375  0.52047526    -0.10700
C1550       C  0.05131192  0.74935001  0.55330843     0.03900
C1551       C  0.01914065  0.73078472  0.56875330    -0.10100
H1552       H  0.01157239  0.65424619  0.50731170     0.09500
H1553       H  0.09421175  0.74621821  0.50955198     0.07100
H1554       H  0.00708842  0.74156291  0.59507388     0.06900
N1555       N  0.12381367  0.62795245  0.46040125    -0.35800
N1556       N  0.16601874  0.58873680  0.40123347    -0.56300
N1557       N  0.12454253  0.63391008  0.34400349    -0.35800
N1558       N  0.08394408  0.67433627  0.40186859    -0.56300
C1559       C  0.14913596  0.60836157  0.48235920     0.27800
C1560       C  0.10639247  0.65454078  0.48289579     0.27800
C1561       C  0.15432240  0.62086847  0.32400803     0.27800
C1562       C  0.10926464  0.66316474  0.32388497     0.27800
C1563       C  0.17784587  0.56704402  0.43124226     0.36400
C1564       C  0.17657272  0.57021406  0.36875456     0.36400
C1565       C  0.06376252  0.68379365  0.43355503     0.36400
C1566       C  0.06174360  0.68227122  0.37095184     0.36400
C1567       C  0.14712106  0.62239362  0.51943204    -0.21100
C1568       C  0.12043804  0.65140496  0.51971034    -0.21100
C1569       C  0.15912853  0.64347314  0.29168363    -0.21100
C1570       C  0.13057188  0.67024360  0.29168124    -0.21100
C1571       C  0.19715522  0.53493733  0.41770907    -0.22100
C1572       C  0.19618792  0.53680550  0.37832817    -0.22100
C1573       C  0.02919556  0.69900627  0.42294712    -0.22100
C1574       C  0.02768036  0.69725946  0.38390831    -0.22100
C1575       C  0.17259935  0.57687013  0.47052902    -0.17500
C1576       C  0.07582760  0.67912482  0.47204754    -0.17500
C1577       C  0.07352731  0.67847211  0.33170458    -0.17500
C1578       C  0.17176350  0.58514096  0.33101680    -0.17500
H1579       H  0.16275444  0.61250881  0.54410475     0.15400
H1580       H  0.11179061  0.66766842  0.54457181     0.15400
H1581       H  0.18015836  0.64096249  0.26955761     0.15400
H1582       H  0.12608836  0.69184535  0.26999723     0.15400
H1583       H  0.21067739  0.51259164  0.43442315     0.13700
H1584       H  0.20951078  0.51647388  0.35911371     0.13700
H1585       H  0.00679334  0.70926599  0.44139411     0.13700
H1586       H  0.00376354  0.70616872  0.36777470     0.13700
H1587       H  0.11590469  0.62102841  0.43270907     0.27000
H1588       H  0.11127048  0.61905346  0.36605294     0.27000
C1589       C  0.24335380  0.69781145  0.69667767     0.04000
C1590       C  0.22722289  0.72981389  0.67767588    -0.12200
C1591       C  0.19543580  0.74940162  0.69265721     0.01500
C1592       C  0.17970358  0.73598244  0.72734667    -0.10700
C1593       C  0.19512483  0.70367862  0.74681878     0.03900
C1594       C  0.22722106  0.68522430  0.73124651    -0.10100
H1595       H  0.23836435  0.73833730  0.65025032     0.09500
H1596       H  0.15400473  0.74925234  0.73802973     0.07100
H1597       H  0.23822693  0.65943636  0.74477254     0.06900
C1598       C  0.18989646  0.50428821  0.55137776     0.04000
C1599       C  0.17574320  0.52097309  0.51741899    -0.12200
C1600       C  0.19277683  0.55437434  0.50154138     0.01500
C1601       C  0.22485289  0.57075268  0.52012543    -0.10700
C1602       C  0.23949320  0.55499171  0.55424472     0.03900
C1603       C  0.22187853  0.52155209  0.56927688    -0.10100
H1604       H  0.14993653  0.50950122  0.50475702     0.09500
H1605       H  0.23694738  0.59736147  0.50929775     0.07100
H1606       H  0.23185910  0.51010647  0.59617747     0.06900
N1607       N  0.28273307  0.62453167  0.62744305    -0.35800
N1608       N  0.33983526  0.58254258  0.58605785    -0.56300
N1609       N  0.40041522  0.62272946  0.62916119    -0.35800
N1610       N  0.34327857  0.66230111  0.67347103    -0.56300
C1611       C  0.26013790  0.59831927  0.60916645     0.27800
C1612       C  0.26161463  0.64237388  0.65442542     0.27800
C1613       C  0.42008207  0.59444577  0.61180125     0.27800
C1614       C  0.42132747  0.63455141  0.65931649     0.27800
C1615       C  0.30879555  0.57400391  0.56422593     0.36400
C1616       C  0.37087694  0.57705542  0.56393904     0.36400
C1617       C  0.31266437  0.68454052  0.68252040     0.36400
C1618       C  0.37516570  0.68261728  0.68337694     0.36400
C1619       C  0.22406418  0.59992818  0.62469035    -0.21100
C1620       C  0.22491489  0.62765091  0.65306718    -0.21100
C1621       C  0.45339034  0.58717457  0.63159795    -0.21100
C1622       C  0.45425589  0.61269120  0.66169791    -0.21100
C1623       C  0.32013315  0.56259313  0.52830994    -0.22100
C1624       C  0.35906935  0.56550400  0.52792125    -0.22100
C1625       C  0.32491079  0.71873206  0.69898807    -0.22100
C1626       C  0.36396105  0.71779808  0.69925156    -0.22100
C1627       C  0.27041637  0.57592781  0.57660937    -0.17500
C1628       C  0.27368484  0.67404911  0.67757939    -0.17500
C1629       C  0.41371890  0.66852126  0.67985370    -0.17500
C1630       C  0.40956637  0.57754834  0.57705002    -0.17500
H1631       H  0.19929222  0.58382689  0.61578434     0.15400
H1632       H  0.20087486  0.63656953  0.67004931     0.15400
H1633       H  0.47513192  0.56619988  0.62481554     0.15400
H1634       H  0.47693068  0.61485473  0.68240730     0.15400
H1635       H  0.30229486  0.55412162  0.50451522     0.13700
H1636       H  0.37669383  0.56008149  0.50369327     0.13700
H1637       H  0.30751113  0.74222806  0.70948046     0.13700
H1638       H  0.38121697  0.74100898  0.71029031     0.13700
H1639       H  0.30964333  0.63337774  0.61917866     0.27000
H1640       H  0.37699225  0.63692194  0.61763498     0.27000
C1641       C  0.05501590  0.55905163  0.75006431     0.04000
C1642       C  0.07209630  0.52600541  0.73361222    -0.12200
C1643       C  0.05708786  0.50885739  0.70014319     0.01500
C1644       C  0.02440466  0.52483112  0.68328682    -0.10700
C1645       C  0.00700638  0.55806797  0.69849841     0.03900
C1646       C  0.02230512  0.57479532  0.73215018    -0.10100
H1647       H  0.09816888  0.51482789  0.74572330     0.09500
H1648       H  0.01368192  0.51254745  0.65687379     0.07100
H1649       H  0.01016393  0.60135872  0.74311956     0.06900
N1650       N  0.12395581  0.46391282  0.62755217    -0.35800
N1651       N  0.15219779  0.40321436  0.57678507    -0.56300
N1652       N  0.11315215  0.34408783  0.62398783    -0.35800
N1653       N  0.08070073  0.40517388  0.67106562    -0.56300
C1654       C  0.14348150  0.48627698  0.60252807     0.27800
C1655       C  0.10440934  0.48774247  0.65124724     0.27800
C1656       C  0.12586228  0.32168216  0.59534253     0.27800
C1657       C  0.08815264  0.32226757  0.64350894     0.27800
C1658       C  0.17105807  0.43362583  0.56111404     0.36400
C1659       C  0.16522035  0.37036674  0.55998000     0.36400
C1660       C  0.06618293  0.43782679  0.68709878     0.36400
C1661       C  0.06032868  0.37459777  0.68433324     0.36400
C1662       C  0.13653362  0.52486956  0.61097412    -0.21100
C1663       C  0.11251042  0.52580438  0.64172995    -0.21100
C1664       C  0.10917499  0.28531662  0.59680545    -0.21100
C1665       C  0.08533369  0.28567065  0.62710535    -0.21100
C1666       C  0.19530086  0.41995417  0.53314190    -0.22100
C1667       C  0.19181226  0.38010252  0.53260603    -0.22100
C1668       C  0.03631436  0.42801564  0.71058837    -0.22100
C1669       C  0.03216178  0.38857263  0.70828748    -0.22100
C1670       C  0.16736220  0.47343938  0.57210375    -0.17500
C1671       C  0.07768674  0.47674077  0.67978090    -0.17500
C1672       C  0.06585016  0.33455691  0.67422860    -0.17500
C1673       C  0.15367330  0.33172520  0.56887716    -0.17500
H1674       H  0.14670646  0.54994486  0.59579810     0.15400
H1675       H  0.10160833  0.55177138  0.65498697     0.15400
H1676       H  0.11335028  0.26108591  0.57760781     0.15400
H1677       H  0.06705658  0.26185480  0.63508091     0.15400
H1678       H  0.21403354  0.43685702  0.51535766     0.13700
H1679       H  0.20720061  0.36054730  0.51417536     0.13700
H1680       H  0.01811693  0.44740780  0.72645868     0.13700
H1681       H  0.00908992  0.37299587  0.72112522     0.13700
H1682       H  0.12444583  0.43411116  0.62900511     0.27000
H1683       H  0.12378605  0.37099964  0.63167044     0.27000
N1684       N  0.96444123  0.62590525  0.62415470    -0.35800
N1685       N  0.90846410  0.57559573  0.65867438    -0.56300
N1686       N  0.85318722  0.60631245  0.60677065    -0.35800
N1687       N  0.90622600  0.65682683  0.57227198    -0.56300
C1688       C  0.98738517  0.60214252  0.64479009     0.27800
C1689       C  0.98634519  0.64461906  0.59822336     0.27800
C1690       C  0.83454834  0.57563159  0.62035961     0.27800
C1691       C  0.83288074  0.61885832  0.57702472     0.27800
C1692       C  0.93751983  0.56865594  0.68304232     0.36400
C1693       C  0.87618920  0.56235890  0.67506577     0.36400
C1694       C  0.93515100  0.68105701  0.56376639     0.36400
C1695       C  0.87352940  0.67353640  0.56009673     0.36400
C1696       C  0.02440017  0.60655162  0.63220026    -0.21100
C1697       C  0.02376915  0.63304728  0.60299761    -0.21100
C1698       C  0.80317320  0.56711514  0.59770002    -0.21100
C1699       C  0.80212857  0.59475159  0.57001826    -0.21100
C1700       C  0.92385213  0.54932401  0.71468198    -0.22100
C1701       C  0.88497677  0.54563046  0.70973228    -0.22100
C1702       C  0.92089981  0.71297931  0.54461147    -0.22100
C1703       C  0.88178184  0.70850430  0.54286981    -0.22100
C1704       C  0.97624390  0.57776815  0.67568380    -0.17500
C1705       C  0.97411428  0.67372168  0.57205786    -0.17500
C1706       C  0.83708828  0.65571842  0.56253089    -0.17500
C1707       C  0.83975957  0.56282777  0.65730933    -0.17500
H1708       H  0.04949282  0.59249272  0.64312127     0.15400
H1709       H  0.04834233  0.64296724  0.58740051     0.15400
H1710       H  0.78144849  0.54554423  0.60254292     0.15400
H1711       H  0.77970615  0.59857216  0.54920001     0.15400
H1712       H  0.94018381  0.53870496  0.73860519     0.13700
H1713       H  0.86589638  0.53036450  0.72834618     0.13700
H1714       H  0.93693724  0.73712869  0.53344421     0.13700
H1715       H  0.86190860  0.72812080  0.52959430     0.13700
H1716       H  0.93620493  0.63199114  0.62991223     0.27000
H1717       H  0.87249425  0.62305011  0.62225715     0.27000
N1718       N  0.12239084  0.79112773  0.62347671    -0.35800
N1719       N  0.16869487  0.85047642  0.65910543    -0.56300
N1720       N  0.12921385  0.91307404  0.61456950    -0.35800
N1721       N  0.08030918  0.85265615  0.58272367    -0.56300
C1722       C  0.14349725  0.76803133  0.64648510     0.27800
C1723       C  0.09857328  0.76831446  0.60303254     0.27800
C1724       C  0.14849815  0.93338860  0.64123652     0.27800
C1725       C  0.09946037  0.93512225  0.60445595     0.27800
C1726       C  0.18944166  0.81828962  0.66720861     0.36400
C1727       C  0.19321139  0.88065967  0.65661445     0.36400
C1728       C  0.06213465  0.82058675  0.56866149     0.36400
C1729       C  0.06116224  0.88455575  0.57037687     0.36400
C1730       C  0.13278240  0.72986769  0.64048421    -0.21100
C1731       C  0.10464262  0.72998187  0.61316043    -0.21100
C1732       C  0.13080284  0.96852109  0.64817670    -0.21100
C1733       C  0.10003619  0.96975917  0.62459451    -0.21100
C1734       C  0.22737917  0.82796296  0.67018308    -0.22100
C1735       C  0.22988180  0.86686470  0.66215926    -0.22100
C1736       C  0.03101327  0.83204813  0.54770053    -0.22100
C1737       C  0.02980601  0.87176652  0.54961700    -0.22100
C1738       C  0.17489687  0.77988064  0.66942053    -0.17500
C1739       C  0.07156704  0.78082213  0.57543587    -0.17500
C1740       C  0.07077166  0.92464638  0.57881881    -0.17500
C1741       C  0.18211770  0.92079455  0.65814701    -0.17500
H1742       H  0.14553683  0.70433095  0.65256990     0.15400
H1743       H  0.09061347  0.70450615  0.60181747     0.15400
H1744       H  0.13787189  0.99081245  0.66864505     0.15400
H1745       H  0.07942732  0.99292660  0.62380083     0.15400
H1746       H  0.25098746  0.80878296  0.67565166     0.13700
H1747       H  0.25583473  0.88341919  0.66112337     0.13700
H1748       H  0.01015607  0.81363061  0.53385682     0.13700
H1749       H  0.00701718  0.88832909  0.53788889     0.13700
H1750       H  0.12490998  0.82073478  0.62043042     0.27000
H1751       H  0.13759711  0.88697110  0.60224273     0.27000
N1752       N  0.12443266  0.63336888  0.79128868    -0.35800
N1753       N  0.08070089  0.59326731  0.85009008    -0.56300
N1754       N  0.11655806  0.64259231  0.90260807    -0.35800
N1755       N  0.16180890  0.68231706  0.84743073    -0.56300
C1756       C  0.09834705  0.61384601  0.76964453     0.27800
C1757       C  0.14218801  0.65968856  0.76855126     0.27800
C1758       C  0.08602736  0.63004433  0.92141365     0.27800
C1759       C  0.12538285  0.67718024  0.91738232     0.27800
C1760       C  0.07210255  0.57009163  0.82014095     0.36400
C1761       C  0.07309410  0.57375162  0.88274359     0.36400
C1762       C  0.18435699  0.69068676  0.81761670     0.36400
C1763       C  0.18032197  0.69222428  0.88002745     0.36400
C1764       C  0.09993966  0.62786335  0.73271320    -0.21100
C1765       C  0.12733212  0.65633601  0.73208600    -0.21100
C1766       C  0.07367254  0.65789066  0.94699811    -0.21100
C1767       C  0.09829096  0.68842332  0.94370965    -0.21100
C1768       C  0.05792217  0.53525636  0.83384436    -0.22100
C1769       C  0.05905742  0.53738386  0.87351011    -0.22100
C1770       C  0.21771422  0.70744835  0.83129492    -0.22100
C1771       C  0.21538363  0.70777821  0.87097615    -0.22100
C1772       C  0.07552116  0.58146496  0.78113726    -0.17500
C1773       C  0.17347277  0.68447308  0.77879811    -0.17500
C1774       C  0.16258624  0.69016206  0.91640992    -0.17500
C1775       C  0.07498415  0.59156681  0.91958650    -0.17500
H1776       H  0.08392676  0.61791650  0.70818109     0.15400
H1777       H  0.13596473  0.67199521  0.70713888     0.15400
H1778       H  0.05071112  0.65611338  0.96715325     0.15400
H1779       H  0.09837339  0.71428509  0.96127009     0.15400
H1780       H  0.04788379  0.51088282  0.81709510     0.13700
H1781       H  0.04928818  0.51544037  0.89307053     0.13700
H1782       H  0.24115479  0.71826902  0.81456059     0.13700
H1783       H  0.23601979  0.71983434  0.89059711     0.13700
H1784       H  0.13248138  0.62623755  0.81885477     0.27000
H1785       H  0.13494045  0.62506919  0.88684741     0.27000
C1786       C  0.76155426  0.30734041  0.30572095     0.04000
C1787       C  0.77595242  0.27495456  0.32516372    -0.12200
C1788       C  0.80964702  0.25679828  0.31322367     0.01500
C1789       C  0.82888182  0.27119882  0.28108004    -0.10700
C1790       C  0.81488377  0.30352653  0.26105402     0.03900
C1791       C  0.78105365  0.32119594  0.27351157    -0.10100
H1792       H  0.76195072  0.26506135  0.35077161     0.09500
H1793       H  0.85554031  0.25825490  0.27259550     0.07100
H1794       H  0.77103554  0.34708307  0.25941729     0.06900
N1795       N  0.71735043  0.37987006  0.37273416    -0.35800
N1796       N  0.66020457  0.34033884  0.32434100    -0.56300
N1797       N  0.60280828  0.38444651  0.36067234    -0.35800
N1798       N  0.65869738  0.42566298  0.40779111    -0.56300
C1799       C  0.74022298  0.36175154  0.34732319     0.27800
C1800       C  0.73903035  0.40569455  0.39255958     0.27800
C1801       C  0.58308147  0.36948298  0.33113417     0.27800
C1802       C  0.58306371  0.41511058  0.37297100     0.27800
C1803       C  0.69147344  0.31935215  0.31533534     0.36400
C1804       C  0.62917649  0.31984536  0.31256635     0.36400
C1805       C  0.68780165  0.43689600  0.43072013     0.36400
C1806       C  0.62616944  0.43832639  0.42398254     0.36400
C1807       C  0.77692356  0.37605679  0.35134477    -0.21100
C1808       C  0.77616525  0.40358157  0.37973677    -0.21100
C1809       C  0.55135170  0.39184466  0.32356321    -0.21100
C1810       C  0.55129104  0.42080669  0.35025888    -0.21100
C1811       C  0.68052862  0.28595355  0.29635291    -0.22100
C1812       C  0.64141320  0.28604424  0.29480341    -0.22100
C1813       C  0.67374658  0.45797965  0.46122173    -0.22100
C1814       C  0.63469396  0.45875613  0.45702596    -0.22100
C1815       C  0.72980957  0.33040659  0.32289595    -0.17500
C1816       C  0.72682613  0.42976759  0.42319038    -0.17500
C1817       C  0.58939884  0.43333238  0.40781105    -0.17500
C1818       C  0.59052405  0.33304811  0.31578387    -0.17500
H1819       H  0.80202377  0.36713336  0.33600458     0.15400
H1820       H  0.80048000  0.41978435  0.39002689     0.15400
H1821       H  0.52993209  0.38762378  0.30181709     0.15400
H1822       H  0.52951286  0.44259881  0.35366720     0.15400
H1823       H  0.69881642  0.26371082  0.28480278     0.13700
H1824       H  0.62468795  0.26391947  0.28092739     0.13700
H1825       H  0.68993034  0.47162497  0.48389453     0.13700
H1826       H  0.61508295  0.47377122  0.47544198     0.13700
H1827       H  0.68967130  0.37186147  0.37899181     0.27000
H1828       H  0.62404547  0.37043827  0.37603422     0.27000
C1829       C  0.75700405  0.44978099  0.44656316     0.04000
C1830       C  0.77342718  0.43137343  0.47850589    -0.12200
C1831       C  0.80613099  0.44682662  0.49657392     0.01500
C1832       C  0.82228900  0.48112275  0.48208966    -0.10700
C1833       C  0.80646911  0.49979155  0.45006536     0.03900
C1834       C  0.77365192  0.48410558  0.43285217    -0.10100
H1835       H  0.76175377  0.40415192  0.48827672     0.09500
H1836       H  0.84825338  0.49232658  0.49467282     0.07100
H1837       H  0.76246649  0.49725814  0.40721023     0.06900
C1838       C  0.94964804  0.45333940  0.26154168     0.04000
C1839       C  0.98138517  0.43720977  0.28071476    -0.12200
C1840       C  0.99640351  0.45399982  0.31440547     0.01500
C1841       C  0.97975787  0.48853338  0.32828881    -0.10700
C1842       C  0.94808389  0.50583093  0.30995093     0.03900
C1843       C  0.93328593  0.48771099  0.27659855    -0.10100
H1844       H  0.99313415  0.41014673  0.27050382     0.09500
H1845       H  0.99004791  0.50075493  0.35488294     0.07100
H1846       H  0.90761090  0.49897163  0.26375189     0.06900
C1847       C  0.99746213  0.30575009  0.45329660     0.04000
C1848       C  0.98306703  0.27045799  0.43772561    -0.12200
C1849       C  0.95186412  0.25068709  0.45452813     0.01500
C1850       C  0.93522247  0.26703958  0.48758789    -0.10700
C1851       C  0.94800712  0.30256777  0.50331764     0.03900
C1852       C  0.97935298  0.32132085  0.48602654    -0.10100
H1853       H  0.99473509  0.25956957  0.41128980     0.09500
H1854       H  0.90991352  0.25373295  0.49918116     0.07100
H1855       H  0.98851449  0.34921046  0.49696841     0.06900
N1856       N  0.03880472  0.38185820  0.38543433    -0.35800
N1857       N  0.09738588  0.42851957  0.34697158    -0.56300
N1858       N  0.15549585  0.38593684  0.38790998    -0.35800
N1859       N  0.09823699  0.34077011  0.42813113    -0.56300
C1860       C  0.01626214  0.40766203  0.36683311     0.27800
C1861       C  0.01664629  0.36116483  0.40978032     0.27800
C1862       C  0.17582574  0.41555213  0.37354115     0.27800
C1863       C  0.17627248  0.37037331  0.41625917     0.27800
C1864       C  0.06618689  0.43965944  0.32671717     0.36400
C1865       C  0.12870759  0.43861587  0.32651276     0.36400
C1866       C  0.06741064  0.31862041  0.43729684     0.36400
C1867       C  0.13018094  0.31965015  0.43538891     0.36400
C1868       C  0.97930886  0.40281980  0.37930055    -0.21100
C1869       C  0.97952681  0.37384574  0.40613755    -0.21100
C1870       C  0.20903193  0.42036374  0.39431899    -0.21100
C1871       C  0.20929022  0.39182741  0.42145573    -0.21100
C1872       C  0.07764818  0.45832223  0.29402603    -0.22100
C1873       C  0.11668969  0.45739077  0.29363700    -0.22100
C1874       C  0.07971583  0.28374560  0.45169337    -0.22100
C1875       C  0.11880016  0.28397117  0.44979541    -0.22100
C1876       C  0.02738018  0.43345079  0.33697506    -0.17500
C1877       C  0.02824728  0.32918417  0.43293731    -0.17500
C1878       C  0.16899401  0.33342883  0.43121586    -0.17500
C1879       C  0.16767555  0.43261183  0.33827657    -0.17500
H1880       H  0.95440858  0.41763754  0.36924264     0.15400
H1881       H  0.95477600  0.36257424  0.42029425     0.15400
H1882       H  0.23130682  0.44145651  0.38999263     0.15400
H1883       H  0.23190114  0.38711298  0.44177350     0.15400
H1884       H  0.05974919  0.47079549  0.27219535     0.13700
H1885       H  0.13348880  0.46995919  0.27140003     0.13700
H1886       H  0.06234503  0.25998514  0.46160610     0.13700
H1887       H  0.13598218  0.25998207  0.45856644     0.13700
H1888       H  0.06698676  0.37621621  0.37921240     0.27000
H1889       H  0.13261741  0.37245509  0.37430915     0.27000
N1890       N  0.87516416  0.37516913  0.54193872    -0.35800
N1891       N  0.82768327  0.41620848  0.59887012    -0.56300
N1892       N  0.85847047  0.36812854  0.65750375    -0.35800
N1893       N  0.90417757  0.32442436  0.60108007    -0.56300
C1894       C  0.85383869  0.39730590  0.51811225     0.27800
C1895       C  0.89766693  0.35184705  0.52024640     0.27800
C1896       C  0.82968702  0.38444285  0.67690281     0.27800
C1897       C  0.86666547  0.33518546  0.67597741     0.27800
C1898       C  0.81460136  0.43364077  0.56674925     0.36400
C1899       C  0.80909003  0.43203314  0.62911724     0.36400
C1900       C  0.92749545  0.31250441  0.57257885     0.36400
C1901       C  0.91702984  0.30882209  0.63413699     0.36400
C1902       C  0.86353839  0.38844291  0.48084511    -0.21100
C1903       C  0.89093866  0.36016052  0.48224974    -0.21100
C1904       C  0.81886004  0.36123890  0.70707080    -0.21100
C1905       C  0.84233697  0.32993568  0.70644481    -0.21100
C1906       C  0.78716730  0.46040335  0.57652249    -0.22100
C1907       C  0.78340229  0.45912730  0.61545486    -0.22100
C1908       C  0.95485005  0.28806485  0.58762317    -0.22100
C1909       C  0.94838638  0.28595205  0.62648296    -0.22100
C1910       C  0.82564891  0.42521016  0.52845020    -0.17500
C1911       C  0.92416118  0.32322362  0.53328621    -0.17500
C1912       C  0.89945396  0.31365221  0.67051693    -0.17500
C1913       C  0.81261909  0.41960471  0.66813678    -0.17500
H1914       H  0.85185298  0.40074596  0.45507850     0.15400
H1915       H  0.90403378  0.34694508  0.45783806     0.15400
H1916       H  0.79635191  0.36629900  0.72738036     0.15400
H1917       H  0.84244281  0.30650561  0.72680863     0.15400
H1918       H  0.77048081  0.47815106  0.55746662     0.13700
H1919       H  0.76180224  0.47454404  0.63079742     0.13700
H1920       H  0.97725830  0.27345059  0.57227124     0.13700
H1921       H  0.96432883  0.26874068  0.64655909     0.13700
H1922       H  0.87520560  0.37698337  0.57130048     0.27000
H1923       H  0.87513652  0.38135584  0.63684711     0.27000
N1924       N  0.88426729  0.37565095  0.21912521    -0.35800
N1925       N  0.92524284  0.41865361  0.16001255    -0.56300
N1926       N  0.89025587  0.36932191  0.10347699    -0.35800
N1927       N  0.85038658  0.32479564  0.16109523    -0.56300
C1928       C  0.90815002  0.39703678  0.24147812     0.27800
C1929       C  0.86706515  0.34884569  0.24153864     0.27800
C1930       C  0.91830132  0.38573705  0.08310356     0.27800
C1931       C  0.87956316  0.33725140  0.08432710     0.27800
C1932       C  0.93400076  0.44113390  0.19087930     0.36400
C1933       C  0.93368840  0.43896827  0.12786105     0.36400
C1934       C  0.82947032  0.31335753  0.19135095     0.36400
C1935       C  0.83275680  0.31122673  0.12923212     0.36400
C1936       C  0.90570634  0.38360110  0.27864112    -0.21100
C1937       C  0.87996641  0.35352210  0.27866488    -0.21100
C1938       C  0.92673888  0.36255512  0.05180203    -0.21100
C1939       C  0.90182137  0.33207010  0.05241659    -0.21100
C1940       C  0.94909411  0.47580350  0.17833479    -0.22100
C1941       C  0.94859274  0.47466910  0.13888497    -0.22100
C1942       C  0.79907927  0.29102173  0.17864720    -0.22100
C1943       C  0.80099425  0.28995362  0.13930775    -0.22100
C1944       C  0.92992556  0.43011901  0.23009700    -0.17500
C1945       C  0.83801889  0.32214297  0.23017952    -0.17500
C1946       C  0.84630345  0.31678406  0.09152886    -0.17500
C1947       C  0.93118059  0.42373345  0.08936861    -0.17500
H1948       H  0.92009135  0.39483407  0.30364440     0.15400
H1949       H  0.87129602  0.33743485  0.30352951     0.15400
H1950       H  0.94798914  0.36686653  0.03017641     0.15400
H1951       H  0.89943504  0.30933468  0.03118873     0.15400
H1952       H  0.95946126  0.49954638  0.19575367     0.13700
H1953       H  0.95945687  0.49733783  0.12095206     0.13700
H1954       H  0.77761441  0.27717455  0.19588433     0.13700
H1955       H  0.78162059  0.27481351  0.12038563     0.13700
H1956       H  0.87709529  0.38155925  0.19108376     0.27000
H1957       H  0.87464917  0.38279912  0.12491418     0.27000
N1958       N  0.87686129  0.54564349  0.38202730    -0.35800
N1959       N  0.83781227  0.60277388  0.43150442    -0.56300
N1960       N  0.88087726  0.66101897  0.39554320    -0.35800
N1961       N  0.92057618  0.60669699  0.34643804    -0.56300
C1962       C  0.85788792  0.52164224  0.40594037     0.27800
C1963       C  0.90100457  0.52372540  0.36080106     0.27800
C1964       C  0.86744970  0.67961076  0.42632517     0.27800
C1965       C  0.91092560  0.68123818  0.38354429     0.27800
C1966       C  0.81607407  0.57095126  0.43730291     0.36400
C1967       C  0.81633512  0.63444101  0.43959700     0.36400
C1968       C  0.93042234  0.57717838  0.32276279     0.36400
C1969       C  0.92779675  0.64074721  0.32855342     0.36400
C1970       C  0.86957088  0.48392518  0.39923146    -0.21100
C1971       C  0.89619054  0.48523378  0.37074937    -0.21100
C1972       C  0.89061851  0.71062549  0.43573913    -0.21100
C1973       C  0.91837654  0.71165235  0.40858209    -0.21100
C1974       C  0.78078270  0.58211860  0.45039484    -0.22100
C1975       C  0.78056483  0.62206953  0.45084820    -0.22100
C1976       C  0.94537683  0.59265523  0.28965953    -0.22100
C1977       C  0.94298392  0.63277437  0.29297707    -0.22100
C1978       C  0.82774623  0.53205229  0.43102227    -0.17500
C1979       C  0.92567647  0.53680109  0.33114011    -0.17500
C1980       C  0.92383543  0.67812692  0.34621455    -0.17500
C1981       C  0.83070088  0.67348527  0.43909683    -0.17500
H1982       H  0.85894707  0.45780787  0.41230801     0.15400
H1983       H  0.90909253  0.46031363  0.35759744     0.15400
H1984       H  0.88710754  0.73151818  0.45844657     0.15400
H1985       H  0.94006706  0.73371439  0.40671762     0.15400
H1986       H  0.75716255  0.56350927  0.45767258     0.13700
H1987       H  0.75659312  0.63923954  0.45904845     0.13700
H1988       H  0.95593186  0.57675506  0.26528685     0.13700
H1989       H  0.95214187  0.65354190  0.27195398     0.13700
H1990       H  0.87108806  0.57476054  0.37831796     0.27000
H1991       H  0.86552583  0.64137883  0.37879071     0.27000
N1992       N  0.87766029  0.21139595  0.38448908    -0.35800
N1993       N  0.91143040  0.15028403  0.43101070    -0.56300
N1994       N  0.85505784  0.09982926  0.40190975    -0.35800
N1995       N  0.82117777  0.15716332  0.35508157    -0.56300
C1996       C  0.89970690  0.23313238  0.40836165     0.27800
C1997       C  0.85393289  0.23575254  0.36550124     0.27800
C1998       C  0.86966077  0.07892226  0.43027086     0.27800
C1999       C  0.82165917  0.08370237  0.39298837     0.27800
C2000       C  0.93676920  0.17909274  0.43845665     0.36400
C2001       C  0.92821485  0.11554782  0.43829914     0.36400
C2002       C  0.81421791  0.18664132  0.33100083     0.36400
C2003       C  0.80532799  0.12491709  0.33965059     0.36400
C2004       C  0.89019403  0.27179654  0.40358035    -0.21100
C2005       C  0.86158100  0.27345315  0.37680551    -0.21100
C2006       C  0.84378273  0.05090208  0.44171528    -0.21100
C2007       C  0.81324254  0.05382707  0.41764955    -0.21100
C2008       C  0.96990808  0.16258823  0.45229725    -0.22100
C2009       C  0.96471183  0.12252414  0.45148354    -0.22100
C2010       C  0.79194090  0.17350177  0.30088315    -0.22100
C2011       C  0.78648445  0.13425388  0.30633509    -0.22100
C2012       C  0.92967035  0.21968312  0.43274311    -0.17500
C2013       C  0.82677103  0.22527367  0.33689596    -0.17500
C2014       C  0.80627329  0.08803531  0.35711501    -0.17500
C2015       C  0.90855023  0.07884191  0.43688372    -0.17500
H2016       H  0.90329059  0.29656843  0.41706876     0.15400
H2017       H  0.84821412  0.29961449  0.36657460     0.15400
H2018       H  0.84730509  0.02869104  0.46293685     0.15400
H2019       H  0.78942634  0.03402201  0.41614865     0.15400
H2020       H  0.99535956  0.17772611  0.46134259     0.13700
H2021       H  0.98465529  0.10118052  0.46132519     0.13700
H2022       H  0.78071268  0.19041149  0.27756683     0.13700
H2023       H  0.76892535  0.11537044  0.28909777     0.13700
H2024       H  0.88098550  0.18212959  0.37875218     0.27000
H2025       H  0.87110026  0.11679640  0.38344926     0.27000
O2026       O  0.03931853  0.29848018  0.82421853    -0.77700
C2027       C  0.94678779  0.20129368  0.83780608     0.83400
O2028       O  0.05690413  0.18763911  0.76585690    -0.78800
O2029       O  0.94537178  0.18271981  0.73733035    -0.80300
O2030       O  0.93491826  0.32397830  0.72748899    -0.80100
O2031       O  0.03047096  0.33647403  0.77397166    -0.78700
Zn2032     Zn  0.00195016  0.25766504  0.81368505     1.55700
O2033       O  0.91336853  0.26448748  0.71587675    -0.80100
Cd2034     Cd  0.98707468  0.30758106  0.74588084     1.59700
Cd2035     Cd  0.02384384  0.22579252  0.72906986     1.59600
O2036       O  0.00749319  0.30864950  0.69364163    -0.80100
O2037       O  0.98900935  0.25489625  0.76341651    -1.90600
Cd2038     Cd  0.93902289  0.23421249  0.76064912     1.59900
O2039       O  0.05702241  0.27246068  0.70590187    -0.80000
O2040       O  0.92430638  0.20793336  0.81007123    -0.78700
C2041       C  0.05645385  0.19280894  0.80216555     0.83800
C2042       C  0.05018052  0.32542637  0.80231321     0.83500
O2043       O  0.97167826  0.22586465  0.84855085    -0.77600
C2044       C  0.91730087  0.29972952  0.70614054     0.84300
O2045       O  0.03607990  0.21865197  0.81549015    -0.77700
C2046       C  0.04264727  0.30379241  0.69253864     0.84400
C2047       C  0.94917513  0.18804142  0.70246573     0.84800
O2048       O  0.98070644  0.20268368  0.69081848    -0.80200
C2049       C  0.04788013  0.18935676  0.00292481     0.04000
C2050       C  0.01354268  0.17493074  0.01841499    -0.12200
C2051       C  0.99725734  0.19154261  0.05145186     0.01500
C2052       C  0.01538910  0.22386280  0.06846458    -0.10700
C2053       C  0.04949664  0.23918848  0.05366880     0.03900
C2054       C  0.06551303  0.22156426  0.02097234    -0.10100
H2055       H  0.00079119  0.14911698  0.00617372     0.09500
H2056       H  0.00398821  0.23586603  0.09457730     0.07100
H2057       H  0.09253913  0.23195337  0.01047296     0.06900
N2058       N  0.12183705  0.28368083  0.12285479    -0.35800
N2059       N  0.07162127  0.34054342  0.08970747    -0.56300
N2060       N  0.11387099  0.39935666  0.13170267    -0.35800
N2061       N  0.16331454  0.34500291  0.16431110    -0.56300
C2062       C  0.09578211  0.26023626  0.10536926     0.27800
C2063       C  0.14108316  0.26225634  0.14901343     0.27800
C2064       C  0.08010598  0.41559163  0.12459478     0.27800
C2065       C  0.12939477  0.41954788  0.16058846     0.27800
C2066       C  0.06266597  0.31040348  0.06656054     0.36400
C2067       C  0.05904847  0.37336214  0.07285050     0.36400
C2068       C  0.18436903  0.31428879  0.17514080     0.36400
C2069       C  0.18315768  0.37767887  0.17309644     0.36400
C2070       C  0.09903812  0.22327968  0.12021707    -0.21100
C2071       C  0.12727757  0.22455546  0.14761525    -0.21100
C2072       C  0.07289097  0.44511202  0.15027088    -0.21100
C2073       C  0.10411033  0.44748207  0.17348874    -0.21100
C2074       C  0.04319397  0.32411290  0.03492358    -0.22100
C2075       C  0.04130997  0.36411711  0.03869959    -0.22100
C2076       C  0.21785274  0.32753662  0.19178155    -0.22100
C2077       C  0.21724897  0.36758690  0.19008333    -0.22100
C2078       C  0.07039435  0.27088007  0.07517431    -0.17500
C2079       C  0.17249567  0.27484768  0.17220100    -0.17500
C2080       C  0.16755629  0.41567940  0.17085777    -0.17500
C2081       C  0.06146990  0.41058450  0.09022632    -0.17500
H2082       H  0.08293579  0.19784085  0.11203786     0.15400
H2083       H  0.13694801  0.20011934  0.16411396     0.15400
H2084       H  0.04857494  0.46420205  0.15085831     0.15400
H2085       H  0.10733207  0.46799494  0.19657228     0.15400
H2086       H  0.03166101  0.30711774  0.01159590     0.13700
H2087       H  0.02767928  0.38390380  0.01917579     0.13700
H2088       H  0.24016612  0.31024892  0.20434486     0.13700
H2089       H  0.23836892  0.38683373  0.20207603     0.13700
H2090       H  0.12857206  0.31173547  0.11476705     0.27000
H2091       H  0.12844680  0.38085911  0.11327717     0.27000
C2092       C  0.04550218  0.06593397  0.24897777     0.04000
C2093       C  0.06257350  0.03244491  0.23339018    -0.12200
C2094       C  0.04632306  0.01297629  0.20196718     0.01500
C2095       C  0.01179726  0.02677711  0.18681736    -0.10700
C2096       C  0.99426308  0.06030553  0.20174949     0.03900
C2097       C  0.01140115  0.07963756  0.23286552    -0.10100
H2098       H  0.08969192  0.02278423  0.24444424     0.09500
H2099       H  0.99994396  0.01303916  0.16160755     0.07100
H2100       H  0.99950236  0.10668806  0.24293618     0.06900
C2101       C  0.19449102  0.24463872  0.19371694     0.04000
C2102       C  0.22767454  0.22896283  0.17781162    -0.12200
C2103       C  0.24595348  0.19705170  0.19461055     0.01500
C2104       C  0.23134165  0.18141102  0.22855509    -0.10700
C2105       C  0.19828025  0.19673804  0.24532244     0.03900
C2106       C  0.18005638  0.22837567  0.22758657    -0.10100
H2107       H  0.23792226  0.24000516  0.15089740     0.09500
H2108       H  0.24406999  0.15556796  0.24035335     0.07100
H2109       H  0.15351161  0.23900338  0.23901679     0.06900
N2110       N  0.12222859  0.13314771  0.28771064    -0.35800
N2111       N  0.17769310  0.15636046  0.34413478    -0.56300
N2112       N  0.12869708  0.12181658  0.40350948    -0.35800
N2113       N  0.07718668  0.09568433  0.34724919    -0.56300
C2114       C  0.14939629  0.14830789  0.26489534     0.27800
C2115       C  0.09996452  0.10970256  0.26591848     0.27800
C2116       C  0.16277578  0.12431000  0.42036406     0.27800
C2117       C  0.10816117  0.09687771  0.42434212     0.27800
C2118       C  0.18954351  0.17925575  0.31515967     0.36400
C2119       C  0.19380703  0.17018585  0.37663844     0.36400
C2120       C  0.05434018  0.09008309  0.31652310     0.36400
C2121       C  0.05545303  0.09174165  0.37884552     0.36400
C2122       C  0.14360682  0.13532251  0.22790024    -0.21100
C2123       C  0.11268154  0.11092415  0.22855970    -0.21100
C2124       C  0.16434221  0.10043120  0.45195134    -0.21100
C2125       C  0.12963589  0.08267782  0.45434215    -0.21100
C2126       C  0.21456111  0.20696132  0.32916918    -0.22100
C2127       C  0.21705131  0.20139975  0.36812985    -0.22100
C2128       C  0.01768658  0.08258219  0.32848163    -0.22100
C2129       C  0.01821502  0.08474069  0.36770979    -0.22100
C2130       C  0.17841952  0.17465988  0.27629858    -0.17500
C2131       C  0.06689403  0.08950982  0.27811150    -0.17500
C2132       C  0.07030583  0.08788640  0.41681120    -0.17500
C2133       C  0.18800158  0.15424926  0.41352420    -0.17500
H2134       H  0.15999745  0.14253078  0.20294857     0.15400
H2135       H  0.10040143  0.09666480  0.20395703     0.15400
H2136       H  0.18751784  0.09769734  0.47211369     0.15400
H2137       H  0.12117651  0.06236490  0.47607254     0.15400
H2138       H  0.22911628  0.22909834  0.31308114     0.13700
H2139       H  0.23419662  0.21818368  0.38784670     0.13700
H2140       H  0.99301977  0.07666753  0.31091303     0.13700
H2141       H  0.99402938  0.08086484  0.38592063     0.13700
H2142       H  0.11720254  0.14123977  0.31573417     0.27000
H2143       H  0.11829155  0.14058580  0.38279830     0.27000
C2144       C  0.23934927  0.05299364  0.05308919     0.04000
C2145       C  0.22174656  0.06636603  0.01949445    -0.12200
C2146       C  0.18809506  0.04923359  0.00534202     0.01500
C2147       C  0.17256040  0.01726994  0.02496889    -0.10700
C2148       C  0.18858636  0.00392811  0.05942749     0.03900
C2149       C  0.22211646  0.02208317  0.07322460    -0.10100
H2150       H  0.23296815  0.09191912  0.00568845     0.09500
H2151       H  0.14625606  0.00446878  0.01480416     0.07100
H2152       H  0.23383119  0.01334837  0.10040901     0.06900
N2153       N  0.28414966  0.12579672  0.12155250    -0.35800
N2154       N  0.33737798  0.09869820  0.06442072    -0.56300
N2155       N  0.39549449  0.14522388  0.10325824    -0.35800
N2156       N  0.34400942  0.17290743  0.15814273    -0.56300
C2157       C  0.26031074  0.10541676  0.09829903     0.27800
C2158       C  0.26263579  0.14959907  0.14352641     0.27800
C2159       C  0.41163122  0.13743106  0.06961250     0.27800
C2160       C  0.41722842  0.17233350  0.12011188     0.27800
C2161       C  0.30905817  0.07274204  0.05786483     0.36400
C2162       C  0.36974436  0.08374848  0.04959178     0.36400
C2163       C  0.31465796  0.18370769  0.18041384     0.36400
C2164       C  0.37639967  0.18628869  0.17468826     0.36400
C2165       C  0.22316515  0.11565605  0.10636924    -0.21100
C2166       C  0.22461365  0.14343688  0.13453576    -0.21100
C2167       C  0.44309815  0.16105707  0.06420612    -0.21100
C2168       C  0.44682897  0.18309816  0.09651547    -0.21100
C2169       C  0.32319597  0.04180285  0.03701133    -0.22100
C2170       C  0.36177280  0.04842707  0.03242852    -0.22100
C2171       C  0.32840037  0.20520815  0.21103594    -0.22100
C2172       C  0.36750766  0.20647598  0.20761543    -0.22100
C2173       C  0.27086042  0.07692836  0.07076465    -0.17500
C2174       C  0.27569376  0.17578933  0.17251015    -0.17500
C2175       C  0.41299552  0.18391744  0.15781618    -0.17500
C2176       C  0.40590117  0.10245641  0.05087910    -0.17500
H2177       H  0.19750798  0.10446655  0.09322784     0.15400
H2178       H  0.20015559  0.15733294  0.14705811     0.15400
H2179       H  0.46312344  0.15996254  0.04092102     0.15400
H2180       H  0.46963761  0.20329129  0.10261229     0.15400
H2181       H  0.30761859  0.01657134  0.02722343     0.13700
H2182       H  0.38164702  0.02955644  0.01809074     0.13700
H2183       H  0.31196695  0.21887720  0.23330898     0.13700
H2184       H  0.38678344  0.22239066  0.22593081     0.13700
H2185       H  0.31309446  0.12136617  0.12433477     0.27000
H2186       H  0.37639863  0.12721213  0.11722286     0.27000
N2187       N  0.11658563  0.11681914  0.96132599    -0.35800
N2188       N  0.07720474  0.15902432  0.90214519    -0.56300
N2189       N  0.12394030  0.12031142  0.84321813    -0.35800
N2190       N  0.16000671  0.07540224  0.90379901    -0.56300
C2191       C  0.08790581  0.13274362  0.98170612     0.27800
C2192       C  0.13203531  0.08812288  0.98246043     0.27800
C2193       C  0.09552424  0.13524285  0.82231007     0.27800
C2194       C  0.13860080  0.09054275  0.82327635     0.27800
C2195       C  0.06955465  0.18102700  0.93362146     0.36400
C2196       C  0.07596015  0.18277972  0.87138058     0.36400
C2197       C  0.18103096  0.06899958  0.93577278     0.36400
C2198       C  0.18373499  0.07193376  0.87358159     0.36400
C2199       C  0.08491500  0.11372006  0.01614579    -0.21100
C2200       C  0.11260429  0.08570732  0.01663694    -0.21100
C2201       C  0.09108411  0.11394319  0.78895421    -0.21100
C2202       C  0.11849150  0.08551318  0.78958187    -0.21100
C2203       C  0.06337640  0.21885890  0.92308712    -0.22100
C2204       C  0.06862652  0.22030160  0.88427411    -0.22100
C2205       C  0.21827695  0.06154962  0.92590699    -0.22100
C2206       C  0.22020602  0.06443969  0.88690050    -0.22100
C2207       C  0.06816832  0.16699827  0.97169639    -0.17500
C2208       C  0.16621850  0.06831072  0.97343576    -0.17500
C2209       C  0.17163615  0.07099032  0.83437655    -0.17500
C2210       C  0.07716929  0.16985076  0.83198031    -0.17500
H2211       H  0.06571055  0.11998842  0.03915350     0.15400
H2212       H  0.11819130  0.06674704  0.04018844     0.15400
H2213       H  0.07054887  0.11815888  0.76640880     0.15400
H2214       H  0.12297899  0.06396417  0.76762978     0.15400
H2215       H  0.05729003  0.24321750  0.94154908     0.13700
H2216       H  0.06788909  0.24661351  0.86788023     0.13700
H2217       H  0.24187065  0.05526559  0.94465766     0.13700
H2218       H  0.24580481  0.06135775  0.87036267     0.13700
H2219       H  0.12852437  0.12853054  0.93688663     0.27000
H2220       H  0.13577046  0.13292325  0.86760370     0.27000
N2221       N  0.11722414  0.96710787  0.13326243    -0.35800
N2222       N  0.14989206  0.90548304  0.08829011    -0.56300
N2223       N  0.09942224  0.85237230  0.12557412    -0.35800
N2224       N  0.06625872  0.91063306  0.17094247    -0.56300
C2225       C  0.13825500  0.98853669  0.10852250     0.27800
C2226       C  0.09324257  0.99135865  0.15197400     0.27800
C2227       C  0.11082155  0.83157803  0.09558854     0.27800
C2228       C  0.06907326  0.83413319  0.13984901     0.27800
C2229       C  0.17344468  0.93428767  0.07697206     0.36400
C2230       C  0.16544190  0.87127998  0.07743774     0.36400
C2231       C  0.06122754  0.94225623  0.19325238     0.36400
C2232       C  0.05847120  0.87886388  0.19230950     0.36400
C2233       C  0.12839291  0.02711685  0.11283913    -0.21100
C2234       C  0.10007700  0.02880978  0.13978671    -0.21100
C2235       C  0.08586767  0.80119296  0.08874284    -0.21100
C2236       C  0.05911613  0.80292163  0.11690652    -0.21100
C2237       C  0.20369934  0.91834609  0.05732778    -0.22100
C2238       C  0.19868230  0.87854541  0.05778144    -0.22100
C2239       C  0.04891199  0.93090065  0.22882837    -0.22100
C2240       C  0.04823070  0.89092638  0.22864495    -0.22100
C2241       C  0.16692676  0.97462168  0.08302407    -0.17500
C2242       C  0.06752340  0.98114046  0.18179388    -0.17500
C2243       C  0.05835589  0.84001136  0.17743834    -0.17500
C2244       C  0.14761609  0.83435687  0.08201347    -0.17500
H2245       H  0.14115050  0.05179894  0.09904958     0.15400
H2246       H  0.08725893  0.05496397  0.15032990     0.15400
H2247       H  0.08799560  0.77857591  0.06747497     0.15400
H2248       H  0.03670022  0.78200267  0.12114260     0.15400
H2249       H  0.22671843  0.93375496  0.04375040     0.13700
H2250       H  0.21594846  0.85774292  0.04292918     0.13700
H2251       H  0.04240329  0.94942156  0.25286498     0.13700
H2252       H  0.04040128  0.87351315  0.25268908     0.13700
H2253       H  0.12102053  0.93809725  0.13950640     0.27000
H2254       H  0.11667981  0.87165950  0.14074943     0.27000
N2255       N  0.95341828  0.12501993  0.12541131    -0.35800
N2256       N  0.89590158  0.16161280  0.07931870    -0.56300
N2257       N  0.83612542  0.12477748  0.12569561    -0.35800
N2258       N  0.89363343  0.08591674  0.17030948    -0.56300
C2259       C  0.97657664  0.14359028  0.10057284     0.27800
C2260       C  0.97545928  0.10213803  0.14747407     0.27800
C2261       C  0.81616879  0.13552526  0.09473038     0.27800
C2262       C  0.81542446  0.09710733  0.14320205     0.27800
C2263       C  0.92691702  0.17892577  0.06359165     0.36400
C2264       C  0.86454741  0.17684112  0.06257711     0.36400
C2265       C  0.92500075  0.07736435  0.19142140     0.36400
C2266       C  0.86264017  0.08043166  0.19274902     0.36400
C2267       C  0.01377476  0.13278572  0.10753746    -0.21100
C2268       C  0.01304965  0.10675320  0.13680659    -0.21100
C2269       C  0.78314288  0.11384645  0.09176067    -0.21100
C2270       C  0.78272874  0.08937818  0.12226376    -0.21100
C2271       C  0.91537151  0.20482960  0.03624929    -0.22100
C2272       C  0.87640992  0.20313822  0.03526759    -0.22100
C2273       C  0.91414637  0.06573418  0.22723570    -0.22100
C2274       C  0.87526807  0.06843475  0.22845206    -0.22100
C2275       C  0.96564329  0.17089761  0.07246315    -0.17500
C2276       C  0.96346985  0.07991211  0.17921784    -0.17500
C2277       C  0.82368512  0.08280654  0.17969290    -0.17500
C2278       C  0.82581161  0.16571795  0.07011152    -0.17500
H2279       H  0.03911622  0.14348315  0.09392671     0.15400
H2280       H  0.03778113  0.09442686  0.15010433     0.15400
H2281       H  0.76155910  0.11543220  0.06977983     0.15400
H2282       H  0.76071450  0.06834000  0.12762216     0.15400
H2283       H  0.93315432  0.22236414  0.01807260     0.13700
H2284       H  0.85953848  0.21855390  0.01507439     0.13700
H2285       H  0.93238981  0.05710681  0.25055923     0.13700
H2286       H  0.85925945  0.06155250  0.25338266     0.13700
H2287       H  0.92474774  0.12970050  0.12927833     0.27000
H2288       H  0.85958186  0.13932947  0.13700731     0.27000
loop_ 
_geom_bond_atom_site_label_1 
_geom_bond_atom_site_label_2 
_geom_bond_distance 
_geom_bond_site_symmetry_2 
_ccdc_geom_bond_type 
O1           C17   1.265       .  A
O1           Zn7   2.007       .  S
C2           O18   1.274       .  A
C2           O15   1.271       .  A
C2          C525   1.498       .  S
O3           C16   1.294       .  A
O3          Cd10   2.211       .  S
O4           C22   1.257       .  A
O4          Cd13   1.954       .  S
O5           C19   1.272       .  A
O5           Cd9   2.075       .  S
O6           C17   1.278       .  A
O6           Cd9   2.044       .  S
Zn7          O18   1.924       .  S
Zn7          O20   1.899       .  S
Zn7          O12   1.829       .  S
O8           C19   1.282       .  A
O8          Cd13   2.073       .  S
Cd9          O11   1.972       .  S
Cd9          O12   1.919       .  S
Cd10         O14   2.164       .  S
Cd10         O23   2.176       .  S
Cd10         O12   1.957       .  S
O11          C21   1.248       .  A
O12         Cd13   1.916       .  S
Cd13         O15   2.081       .  S
O14          C21   1.286       .  A
C16          O20   1.245       .  A
C16        C1052   1.502       .  S
C17        C1817   1.465       .  S
C19         C906   1.482       .  S
C21        C1432   1.505       .  S
C22          O23   1.294       .  A
C22        C1630   1.487       .  S
O24          C40   1.283       .  A
O24         Zn30   2.018       .  S
C25          O41   1.276       .  A
C25          O38   1.282       .  A
C25        C1356   1.487       .  S
O26          C39   1.288       .  A
O26         Cd33   2.165       .  S
O27          C45   1.247       .  A
O27         Cd36   1.974       .  S
O28          C42   1.270       .  A
O28         Cd32   1.997       .  S
O29          C40   1.270       .  A
O29         Cd32   2.050       .  S
Zn30         O41   2.055       .  S
Zn30         O43   1.915       .  S
Zn30         O35   1.839       .  S
O31          C42   1.279       .  A
O31         Cd36   2.124       .  S
Cd32         O34   1.994       .  S
Cd32         O35   1.888       .  S
Cd33         O37   2.167       .  S
Cd33         O46   2.173       .  S
Cd33         O35   1.959       .  S
O34          C44   1.254       .  A
O35         Cd36   1.930       .  S
Cd36         O38   2.046       .  S
O37          C44   1.286       .  A
C39          O43   1.249       .  A
C39         C688   1.504       .  S
C40        C2175   1.475       .  S
C42        C1146   1.496       .  S
C44         C940   1.511       .  S
C45          O46   1.287       .  A
C45        C1818   1.503       .  S
C47         C172   1.515       .  S
C47          C48   1.413       .  A
C47          C52   1.418       .  A
C48          C49   1.413       .  A
C48          H53   1.083       .  S
C49         C239   1.508       .  S
C49          C50   1.411       .  A
C50          C51   1.412       .  A
C50          H54   1.084       .  S
C51         C205   1.515       .  S
C51          C52   1.417       .  A
C52          H55   1.083       .  S
C56         C240   1.511       .  S
C56          C57   1.414       .  A
C56          C61   1.416       .  A
C57          C58   1.412   1_565  A
C57          H62   1.083       .  S
C58         C273   1.509       .  S
C58          C59   1.414   1_545  A
C59          C60   1.411       .  A
C59          H63   1.084       .  S
C60         C137   1.512   1_556  S
C60          C61   1.413       .  A
C61          H64   1.083       .  S
C65         C138   1.516       .  S
C65          C66   1.414   1_554  A
C65          C70   1.418   1_554  A
C66          C67   1.412       .  A
C66          H71   1.084       .  S
C67         C103   1.517   1_655  S
C67          C68   1.418       .  A
C68          C69   1.417       .  A
C68          H72   1.083       .  S
C69         C206   1.525       .  S
C69          C70   1.420       .  A
C70          H73   1.083   1_556  S
C74         C171   1.509       .  S
C74          C75   1.411       .  A
C74          C79   1.412       .  A
C75          C76   1.413   1_655  A
C75          H80   1.084       .  S
C76         C104   1.516       .  S
C76          C77   1.422   1_455  A
C77          C78   1.421       .  A
C77          H81   1.083       .  S
C78         C274   1.518   1_565  S
C78          C79   1.413       .  A
C79          H82   1.084       .  S
N83          C88   1.357       .  A
N83          C87   1.360       .  A
N83         H115   1.039       .  S
N84          C91   1.362       .  A
N84          C92   1.361       .  A
N85          C90   1.337       .  A
N85          C89   1.341       .  A
N85         H116   1.042       .  S
N86          C93   1.361       .  A
N86          C94   1.362       .  A
C87          C95   1.387   1_455  A
C87         C103   1.425       .  A
C88         C104   1.428       .  A
C88          C96   1.389   1_455  A
C89          C97   1.384       .  A
C89         C106   1.387       .  A
C90         C105   1.391       .  A
C90          C98   1.391       .  A
C91         C103   1.425       .  A
C91          C99   1.381       .  A
C92         C106   1.446       .  A
C92         C100   1.386       .  A
C93         C101   1.387       .  A
C93         C104   1.435       .  A
C94         C102   1.387       .  A
C94         C105   1.436       .  A
C95          C96   1.380       .  A
C95         H107   1.082       .  S
C96         H108   1.082       .  S
C97          C98   1.372       .  A
C97         H109   1.081       .  S
C98         H110   1.082       .  S
C99         C100   1.379       .  A
C99         H111   1.082   1_556  S
C100        H112   1.073   1_556  S
C101        C102   1.389       .  A
C101        H113   1.082       .  S
C102        H114   1.083       .  S
C105        C420   1.479       .  S
C106        C371   1.498       .  S
N117        C122   1.363       .  A
N117        C121   1.363       .  A
N117        H149   1.037       .  S
N118        C125   1.355       .  A
N118        C126   1.358       .  A
N119        C124   1.342       .  A
N119        C123   1.341       .  A
N119        H150   1.041       .  S
N120        C127   1.357       .  A
N120        C128   1.361       .  A
C121        C129   1.385   1_554  A
C121        C137   1.433       .  A
C122        C138   1.434       .  A
C122        C130   1.388   1_554  A
C123        C131   1.385       .  A
C123        C140   1.389       .  A
C124        C139   1.394       .  A
C124        C132   1.388       .  A
C125        C137   1.425       .  A
C125        C133   1.387       .  A
C126        C140   1.426       .  A
C126        C134   1.386       .  A
C127        C135   1.388       .  A
C127        C138   1.432       .  A
C128        C136   1.386       .  A
C128        C139   1.433       .  A
C129        C130   1.378       .  A
C129        H141   1.077       .  S
C130        H142   1.082       .  S
C131        C132   1.371       .  A
C131        H143   1.083       .  S
C132        H144   1.081       .  S
C133        C134   1.385       .  A
C133        H145   1.082       .  S
C134        H146   1.081       .  S
C135        C136   1.389       .  A
C135        H147   1.082       .  S
C136        H148   1.082       .  S
C139        C466   1.487       .  S
C140        C735   1.478       .  S
N151        C156   1.361       .  A
N151        C155   1.361       .  A
N151        H183   1.037       .  S
N152        C159   1.356       .  A
N152        C160   1.358       .  A
N153        C158   1.345       .  A
N153        C157   1.342       .  A
N153        H184   1.042       .  S
N154        C161   1.360       .  A
N154        C162   1.362       .  A
C155        C163   1.388       .  A
C155        C171   1.431       .  A
C156        C172   1.430       .  A
C156        C164   1.386       .  A
C157        C165   1.386       .  A
C157        C174   1.391       .  A
C158        C173   1.393       .  A
C158        C166   1.387       .  A
C159        C171   1.427       .  A
C159        C167   1.387       .  A
C160        C174   1.427       .  A
C160        C168   1.385       .  A
C161        C169   1.382       .  A
C161        C172   1.427       .  A
C162        C170   1.391       .  A
C162        C173   1.441       .  A
C163        C164   1.378       .  A
C163        H175   1.081       .  S
C164        H176   1.080       .  S
C165        C166   1.367       .  A
C165        H177   1.083       .  S
C166        H178   1.080       .  S
C167        C168   1.383       .  A
C167        H179   1.082       .  S
C168        H180   1.079       .  S
C169        C170   1.377       .  A
C169        H181   1.082       .  S
C170        H182   1.077       .  S
C173        C446   1.501       .  S
C174       C1284   1.478       .  S
N185        C190   1.358       .  A
N185        C189   1.356       .  A
N185        H217   1.040       .  S
N186        C193   1.364       .  A
N186        C194   1.363       .  A
N187        C192   1.347       .  A
N187        C191   1.348       .  A
N187        H218   1.043       .  S
N188        C195   1.369       .  A
N188        C196   1.367       .  A
C189        C197   1.385       .  A
C189        C205   1.422       .  A
C190        C206   1.422       .  A
C190        C198   1.387       .  A
C191        C199   1.387       .  A
C191        C208   1.406       .  A
C192        C207   1.404       .  A
C192        C200   1.386       .  A
C193        C205   1.424       .  A
C193        C201   1.376       .  A
C194        C208   1.451       .  A
C194        C202   1.393       .  A
C195        C203   1.373       .  A
C195        C206   1.431       .  A
C196        C204   1.390       .  A
C196        C207   1.457       .  A
C197        C198   1.376       .  A
C197        H209   1.076       .  S
C198        H210   1.081       .  S
C199        C200   1.375       .  A
C199        H211   1.080       .  S
C200        H212   1.080       .  S
C201        C202   1.375       .  A
C201        H213   1.082       .  S
C202        H214   1.068       .  S
C203        C204   1.375       .  A
C203        H215   1.081       .  S
C204        H216   1.062       .  S
C207        C400   1.521       .  S
C208       C1281   1.511       .  S
N219        C224   1.360       .  A
N219        C223   1.357       .  A
N219        H251   1.033       .  S
N220        C227   1.359       .  A
N220        C228   1.359       .  A
N221        C226   1.342       .  A
N221        C225   1.344       .  A
N221        H252   1.041       .  S
N222        C229   1.361       .  A
N222        C230   1.359       .  A
C223        C231   1.387       .  A
C223        C239   1.429       .  A
C224        C240   1.426       .  A
C224        C232   1.386       .  A
C225        C233   1.386       .  A
C225        C242   1.387       .  A
C226        C241   1.393       .  A
C226        C234   1.389       .  A
C227        C239   1.431       .  A
C227        C235   1.387       .  A
C228        C242   1.429       .  A
C228        C236   1.383       .  A
C229        C237   1.380       .  A
C229        C240   1.426       .  A
C230        C238   1.391       .  A
C230        C241   1.442       .  A
C231        C232   1.373       .  A
C231        H243   1.077       .  S
C232        H244   1.082       .  S
C233        C234   1.365       .  A
C233        H245   1.083       .  S
C234        H246   1.083       .  S
C235        C236   1.384       .  A
C235        H247   1.082       .  S
C236        H248   1.079       .  S
C237        C238   1.374       .  A
C237        H249   1.083       .  S
C238        H250   1.073       .  S
C241        C486   1.482       .  S
C242        C349   1.478       .  S
N253        C258   1.367       .  A
N253        C257   1.360       .  A
N253        H285   1.036       .  S
N254        C261   1.352       .  A
N254        C262   1.363       .  A
N255        C260   1.337       .  A
N255        C259   1.340       .  A
N255        H286   1.045       .  S
N256        C263   1.354       .  A
N256        C264   1.354       .  A
C257        C265   1.389   1_545  A
C257        C273   1.439       .  A
C258        C274   1.433       .  A
C258        C266   1.384   1_545  A
C259        C267   1.391       .  A
C259        C276   1.398       .  A
C260        C275   1.372       .  A
C260        C268   1.380       .  A
C261        C273   1.434       .  A
C261        C269   1.389       .  A
C262        C276   1.435       .  A
C262        C270   1.382       .  A
C263        C271   1.388       .  A
C263        C274   1.426       .  A
C264        C272   1.386       .  A
C264        C275   1.422       .  A
C265        C266   1.377       .  A
C265        H277   1.077       .  S
C266        H278   1.082       .  S
C267        C268   1.365       .  A
C267        H279   1.076       .  S
C268        H280   1.083       .  S
C269        C270   1.392       .  A
C269        H281   1.082       .  S
C270        H282   1.077       .  S
C271        C272   1.390       .  A
C271        H283   1.082       .  S
C272        H284   1.082       .  S
C275       C2027   1.473       .  S
C276        C773   1.504       .  S
O287        C303   1.271       .  A
O287       Zn293   2.018       .  S
C288        O304   1.274       .  A
C288        O301   1.272       .  A
C288       C1578   1.484       .  S
O289        C302   1.290       .  A
O289       Cd296   2.182       .  S
O290        C308   1.254       .  A
O290       Cd299   1.988       .  S
O291        C305   1.278       .  A
O291       Cd295   2.109       .  S
O292        C303   1.280       .  A
O292       Cd295   2.061       .  S
Zn293       O304   1.963       .  S
Zn293       O306   1.912       .  S
Zn293       O298   1.835       .  S
O294        C305   1.275       .  A
O294       Cd299   2.014       .  S
Cd295       O297   1.983       .  S
Cd295       O298   1.918       .  S
Cd296       O300   2.208       .  S
Cd296       O309   2.201       .  S
Cd296       O298   1.968       .  S
O297        C307   1.250       .  A
O298       Cd299   1.905       .  S
Cd299       O301   2.076       .  S
O300        C307   1.291       .  A
C302        O306   1.252       .  A
C302        C526   1.507       .  S
C303       C1113   1.476       .  S
C305       C2080   1.495       .  S
C307        C941   1.512       .  S
C308        O309   1.291       .  A
C308       C1879   1.514       .  S
O310        C326   1.280       .  A
O310       Zn316   1.988       .  S
C311        O327   1.268       .  A
C311        O324   1.277       .  A
C311       C2133   1.467       .  S
O312        C325   1.293       .  A
O312       Cd319   2.199       .  S
O313        C331   1.252       .  A
O313       Cd322   1.985       .  S
O314        C328   1.275       .  A
O314       Cd318   2.019       .  S
O315        C326   1.270       .  A
O315       Cd318   2.056       .  S
Zn316       O327   2.024       .  S
Zn316       O329   1.908       .  S
Zn316       O321   1.838       .  S
O317        C328   1.272       .  A
O317       Cd322   2.080       .  S
Cd318       O320   1.979       .  S
Cd318       O321   1.912       .  S
Cd319       O323   2.156       .  S
Cd319       O332   2.197       .  S
Cd319       O321   1.959       .  S
O320        C330   1.253       .  A
O321       Cd322   1.914       .  S
Cd322       O324   2.025       .  S
O323        C330   1.286       .  A
C325        O329   1.249       .  A
C325        C689   1.503       .  S
C326       C1389   1.474       .  S
C328       C1673   1.473       .  S
C330        C907   1.504       .  S
C331        O332   1.290       .  A
C331       C1878   1.517       .  S
O333        C349   1.276       .  A
O333       Zn339   2.058       .  S
C334        O350   1.281       .  A
C334        O347   1.281       .  A
C334        C838   1.488       .  S
O335        C348   1.285       .  A
O335       Cd342   2.148       .  S
O336        C354   1.247       .  A
O336       Cd345   1.985       .  S
O337        C351   1.269       .  A
O337       Cd341   2.046       .  S
O338        C349   1.274       .  A
O338       Cd341   2.020       .  S
Zn339       O350   2.000       .  S
Zn339       O352   1.929       .  S
Zn339       O344   1.864       .  S
O340        C351   1.280       .  A
O340       Cd345   2.056       .  S
Cd341       O343   1.983       .  S
Cd341       O344   1.924       .  S
Cd342       O346   2.174       .  S
Cd342       O355   2.183       .  S
Cd342       O344   1.970       .  S
O343        C353   1.253       .  A
O344       Cd345   1.919       .  S
Cd345       O347   2.108       .  S
O346        C353   1.288       .  A
C348        O352   1.253       .  A
C348       C1180   1.509       .  S
C351        C655   1.474       .  S
C353       C1466   1.509       .  S
C354        O355   1.286       .  A
C354       C1629   1.507       .  S
O356        C372   1.276       .  A
O356       Zn362   1.971   1_556  S
C357        O373   1.268       .  A
C357        O370   1.268       .  A
C357       C2244   1.481       .  S
O358        C371   1.299       .  A
O358       Cd365   2.221       .  S
O359        C377   1.242       .  A
O359       Cd368   1.955       .  S
O360        C374   1.270       .  A
O360       Cd364   2.263       .  S
O361        C372   1.257       .  A
O361       Cd364   2.295   1_556  S
Zn362       O373   1.977       .  S
Zn362       O375   1.806   1_554  S
Zn362       O367   1.874       .  S
O363        C374   1.270       .  A
O363       Cd368   2.048       .  S
Cd364       O366   2.057   1_554  S
Cd364       O367   2.058       .  S
Cd365       O369   2.203       .  S
Cd365       O378   2.205   1_556  S
Cd365       O367   1.989   1_556  S
O366        C376   1.248       .  A
O367       Cd368   1.926       .  S
Cd368       O370   2.037       .  S
O369        C376   1.295       .  A
C371        O375   1.241       .  A
C372       C1774   1.497       .  S
C374       C1112   1.470       .  S
C376        C839   1.500       .  S
C377        O378   1.291       .  A
C377        C602   1.505       .  S
O379        C395   1.273       .  A
O379       Zn385   2.012   1_455  S
C380        O396   1.277       .  A
C380        O393   1.275       .  A
C380       C1215   1.489       .  S
O381        C394   1.288       .  A
O381       Cd388   2.177   1_554  S
O382        C400   1.247       .  A
O382       Cd391   1.986       .  S
O383        C397   1.270       .  A
O383       Cd387   2.087   1_556  S
O384        C395   1.279       .  A
O384       Cd387   2.066       .  S
Zn385       O396   1.954       .  S
Zn385       O398   1.937       .  S
Zn385       O390   1.853   1_655  S
O386        C397   1.272       .  A
O386       Cd391   2.019   1_455  S
Cd387       O389   1.906   1_554  S
Cd387       O390   1.916       .  S
Cd388       O392   2.211   1_655  S
Cd388       O401   2.217       .  S
Cd388       O390   1.968   1_656  S
O389        C399   1.246       .  A
O390       Cd391   1.914   1_454  S
Cd391       O393   2.078   1_556  S
O392        C399   1.298       .  A
C394        O398   1.254       .  A
C394       C1947   1.515       .  S
C395       C2081   1.475       .  S
C397       C1775   1.493       .  S
C399       C1009   1.499       .  S
C400        O401   1.292       .  A
O402        C418   1.276       .  A
O402       Zn408   2.020   1_545  S
C403        O419   1.277       .  A
C403        O416   1.267       .  A
C403        C654   1.497       .  S
O404        C417   1.280       .  A
O404       Cd411   2.150       .  S
O405        C423   1.242       .  A
O405       Cd414   1.871       .  S
O406        C420   1.274       .  A
O406       Cd410   2.054       .  S
O407        C418   1.281       .  A
O407       Cd410   2.048   1_545  S
Zn408       O419   1.986       .  S
Zn408       O421   1.918   1_565  S
Zn408       O413   1.855       .  S
O409        C420   1.275       .  A
O409       Cd414   2.053       .  S
Cd410       O412   1.939   1_565  S
Cd410       O413   1.901       .  S
Cd411       O415   2.176       .  S
Cd411       O424   2.169   1_545  S
Cd411       O413   2.009   1_545  S
O412        C422   1.251       .  A
O413       Cd414   1.909       .  S
Cd414       O416   2.057       .  S
O415        C422   1.289       .  A
C417        O421   1.247       .  A
C417       C1390   1.499       .  S
C418        C974   1.486       .  S
C422       C2209   1.501       .  S
C423        O424   1.292       .  A
C423       C1741   1.492       .  S
O425        C441   1.271       .  A
O425       Zn431   2.031       .  S
C426        O442   1.273       .  A
C426        O439   1.278       .  A
C426       C1467   1.490       .  S
O427        C440   1.286       .  A
O427       Cd434   2.144       .  S
O428        C446   1.249       .  A
O428       Cd437   1.976       .  S
O429        C443   1.269       .  A
O429       Cd433   2.053       .  S
O430        C441   1.275       .  A
O430       Cd433   2.022       .  S
Zn431       O442   1.940       .  S
Zn431       O444   1.931       .  S
Zn431       O436   1.837       .  S
O432        C443   1.281       .  A
O432       Cd437   2.053       .  S
Cd433       O435   1.975       .  S
Cd433       O436   1.902       .  S
Cd434       O438   2.165       .  S
Cd434       O447   2.160       .  S
Cd434       O436   1.956       .  S
O435        C445   1.253       .  A
O436       Cd437   1.924       .  S
Cd437       O439   2.102       .  S
O438        C445   1.288       .  A
C440        O444   1.253       .  A
C440        C569   1.506       .  S
C441       C1051   1.469       .  S
C443       C1706   1.473       .  S
C445       C1981   1.503       .  S
C446        O447   1.286       .  A
O448        C464   1.269       .  A
O448       Zn454   2.013       .  S
C449        O465   1.269       .  A
C449        O462   1.269       .  A
C449       C1980   1.490       .  S
O450        C463   1.291       .  A
O450       Cd457   2.191       .  S
O451        C469   1.247       .  A
O451       Cd460   1.915       .  S
O452        C466   1.279       .  A
O452       Cd456   2.091   1_655  S
O453        C464   1.280       .  A
O453       Cd456   2.058       .  S
Zn454       O465   1.940   1_455  S
Zn454       O467   1.924       .  S
Zn454       O459   1.835   1_455  S
O455        C466   1.278       .  A
O455       Cd460   2.073       .  S
Cd456       O458   1.977       .  S
Cd456       O459   1.929   1_455  S
Cd457       O461   2.143       .  S
Cd457       O470   2.167   1_455  S
Cd457       O459   1.977   1_455  S
O458        C468   1.251       .  A
O459       Cd460   1.921       .  S
Cd460       O462   2.077       .  S
O461        C468   1.282       .  A
C463        O467   1.251       .  A
C463       C1577   1.517       .  S
C464        C722   1.472       .  S
C468       C2243   1.498       .  S
C469        O470   1.291       .  A
C469       C1214   1.495       .  S
O471        C487   1.268       .  A
O471       Zn477   2.034   1_546  S
C472        O488   1.277       .  A
C472        O485   1.276       .  A
C472       C1248   1.496       .  S
O473        C486   1.290       .  A
O473       Cd480   2.177       .  S
O474        C492   1.257       .  A
O474       Cd483   1.960   1_565  S
O475        C489   1.274       .  A
O475       Cd479   2.075   1_554  S
O476        C487   1.275       .  A
O476       Cd479   2.041       .  S
Zn477       O488   1.962       .  S
Zn477       O490   1.865   1_554  S
Zn477       O482   1.838   1_565  S
O478        C489   1.276       .  A
O478       Cd483   2.044       .  S
Cd479       O481   1.978       .  S
Cd479       O482   1.930   1_556  S
Cd480       O484   2.189   1_565  S
Cd480       O493   2.166   1_556  S
Cd480       O482   1.968   1_566  S
O481        C491   1.248       .  A
O482       Cd483   1.912       .  S
Cd483       O485   2.052   1_545  S
O484        C491   1.288       .  A
C486        O490   1.241       .  A
C487       C1534   1.473       .  S
C489       C2176   1.472       .  S
C491        C975   1.515       .  S
C492        O493   1.291       .  A
C492        C603   1.491       .  S
C494        C601   1.512       .  S
C494        C495   1.416       .  A
C494        C499   1.411       .  A
C495        C496   1.415       .  A
C495        H500   1.083       .  S
C496        C721   1.509       .  S
C496        C497   1.412       .  A
C497        C498   1.411       .  A
C497        H501   1.084       .  S
C498        C523   1.507       .  S
C498        C499   1.411       .  A
C499        H502   1.084       .  S
N503        C508   1.363       .  A
N503        C507   1.360       .  A
N503        H535   1.036       .  S
N504        C511   1.357       .  A
N504        C512   1.362       .  A
N505        C510   1.337       .  A
N505        C509   1.341       .  A
N505        H536   1.044       .  S
N506        C513   1.361       .  A
N506        C514   1.363       .  A
C507        C515   1.387       .  A
C507        C523   1.429       .  A
C508        C524   1.434       .  A
C508        C516   1.387       .  A
C509        C517   1.382       .  A
C509        C526   1.386       .  A
C510        C525   1.392       .  A
C510        C518   1.390       .  A
C511        C523   1.426       .  A
C511        C519   1.382       .  A
C512        C526   1.441       .  A
C512        C520   1.387       .  A
C513        C521   1.387       .  A
C513        C524   1.441       .  A
C514        C522   1.387       .  A
C514        C525   1.443       .  A
C515        C516   1.375       .  A
C515        H527   1.082       .  S
C516        H528   1.078       .  S
C517        C518   1.371       .  A
C517        H529   1.081       .  S
C518        H530   1.080       .  S
C519        C520   1.379       .  A
C519        H531   1.082       .  S
C520        H532   1.070       .  S
C521        C522   1.394       .  A
C521        H533   1.082       .  S
C522        H534   1.080       .  S
C524        C625   1.530       .  S
C537        C567   1.518       .  S
C537        C538   1.423       .  A
C537        C542   1.411       .  A
C538        C539   1.424       .  A
C538        H543   1.083       .  S
C539        C687   1.529   1_565  S
C539        C540   1.417       .  A
C540        C541   1.417       .  A
C540        H544   1.083       .  S
C541        C600   1.513       .  S
C541        C542   1.409       .  A
C542        H545   1.084       .  S
N546        C551   1.361       .  A
N546        C550   1.363       .  A
N546        H578   1.035       .  S
N547        C554   1.360       .  A
N547        C555   1.362       .  A
N548        C553   1.344       .  A
N548        C552   1.345       .  A
N548        H579   1.042       .  S
N549        C556   1.360       .  A
N549        C557   1.361       .  A
C550        C558   1.386       .  A
C550        C566   1.434       .  A
C551        C567   1.433       .  A
C551        C559   1.387       .  A
C552        C560   1.388       .  A
C552        C569   1.397       .  A
C553        C568   1.391       .  A
C553        C561   1.384       .  A
C554        C566   1.429       .  A
C554        C562   1.382       .  A
C555        C569   1.444       .  A
C555        C563   1.391       .  A
C556        C564   1.387       .  A
C556        C567   1.434       .  A
C557        C565   1.385       .  A
C557        C568   1.433       .  A
C558        C559   1.379       .  A
C558        H570   1.076       .  S
C559        H571   1.082       .  S
C560        C561   1.367       .  A
C560        H572   1.079       .  S
C561        H573   1.083       .  S
C562        C563   1.379       .  A
C562        H574   1.082       .  S
C563        H575   1.072       .  S
C564        C565   1.387       .  A
C564        H576   1.082       .  S
C565        H577   1.079       .  S
C566        C627   1.521       .  S
C568        C752   1.487       .  S
N580        C585   1.352       .  A
N580        C584   1.357       .  A
N580        H612   1.034       .  S
N581        C588   1.365       .  A
N581        C589   1.357       .  A
N582        C587   1.347       .  A
N582        C586   1.349       .  A
N582        H613   1.040       .  S
N583        C590   1.370       .  A
N583        C591   1.367       .  A
C584        C592   1.387       .  A
C584        C600   1.422       .  A
C585        C601   1.421       .  A
C585        C593   1.389       .  A
C586        C594   1.385       .  A
C586        C603   1.396       .  A
C587        C602   1.401       .  A
C587        C595   1.389       .  A
C588        C600   1.424       .  A
C588        C596   1.381       .  A
C589        C603   1.432       .  A
C589        C597   1.377       .  A
C590        C598   1.375       .  A
C590        C601   1.433       .  A
C591        C599   1.390       .  A
C591        C602   1.457       .  A
C592        C593   1.377       .  A
C592        H604   1.081       .  S
C593        H605   1.082       .  S
C594        C595   1.363       .  A
C594        H606   1.081       .  S
C595        H607   1.082       .  S
C596        C597   1.373       .  A
C596        H608   1.082       .  S
C597        H609   1.064       .  S
C598        C599   1.370       .  A
C598        H610   1.083       .  S
C599        H611   1.066       .  S
C614        C720   1.510       .  S
C614        C615   1.418       .  A
C614        C619   1.413       .  A
C615        C616   1.417       .  A
C615        H620   1.083       .  S
C616        C686   1.519   1_565  S
C616        C617   1.414       .  A
C617        C618   1.414       .  A
C617        H621   1.084       .  S
C618        C653   1.509       .  S
C618        C619   1.409       .  A
C619        H622   1.084       .  S
C623        C652   1.515       .  S
C623        C624   1.422       .  A
C623        C628   1.411       .  A
C624        C625   1.423       .  A
C624        H629   1.083       .  S
C625        C626   1.424       .  A
C626        C627   1.421       .  A
C626        H630   1.083       .  S
C627        C628   1.408       .  A
C628        H631   1.084       .  S
N632        C637   1.362       .  A
N632        C636   1.364       .  A
N632        H664   1.038       .  S
N633        C640   1.355       .  A
N633        C641   1.357       .  A
N634        C639   1.338       .  A
N634        C638   1.333       .  A
N634        H665   1.043       .  S
N635        C642   1.351       .  A
N635        C643   1.361       .  A
C636        C644   1.386       .  A
C636        C652   1.433       .  A
C637        C653   1.438       .  A
C637        C645   1.388       .  A
C638        C646   1.387       .  A
C638        C655   1.383       .  A
C639        C654   1.388       .  A
C639        C647   1.385       .  A
C640        C652   1.426       .  A
C640        C648   1.387       .  A
C641        C655   1.427       .  A
C641        C649   1.385       .  A
C642        C650   1.389       .  A
C642        C653   1.428       .  A
C643        C651   1.385       .  A
C643        C654   1.433       .  A
C644        C645   1.380       .  A
C644        H656   1.082       .  S
C645        H657   1.077       .  S
C646        C647   1.371       .  A
C646        H658   1.082       .  S
C647        H659   1.079       .  S
C648        C649   1.389       .  A
C648        H660   1.082       .  S
C649        H661   1.081       .  S
C650        C651   1.390       .  A
C650        H662   1.082       .  S
C651        H663   1.082       .  S
N666        C671   1.362       .  A
N666        C670   1.359       .  A
N666        H698   1.031       .  S
N667        C674   1.365       .  A
N667        C675   1.364       .  A
N668        C673   1.350       .  A
N668        C672   1.351       .  A
N668        H699   1.040       .  S
N669        C676   1.368       .  A
N669        C677   1.364       .  A
C670        C678   1.387   1_545  A
C670        C686   1.432       .  A
C671        C687   1.430       .  A
C671        C679   1.387   1_545  A
C672        C680   1.385       .  A
C672        C689   1.402       .  A
C673        C688   1.403       .  A
C673        C681   1.389       .  A
C674        C686   1.433       .  A
C674        C682   1.380       .  A
C675        C689   1.446       .  A
C675        C683   1.390       .  A
C676        C684   1.380       .  A
C676        C687   1.437       .  A
C677        C685   1.392       .  A
C677        C688   1.452       .  A
C678        C679   1.376       .  A
C678        H690   1.078       .  S
C679        H691   1.082       .  S
C680        C681   1.363       .  A
C680        H692   1.082       .  S
C681        H693   1.079       .  S
C682        C683   1.372       .  A
C682        H694   1.082       .  S
C683        H695   1.073       .  S
C684        C685   1.380       .  A
C684        H696   1.082       .  S
C685        H697   1.073       .  S
N700        C705   1.364       .  A
N700        C704   1.359       .  A
N700        H732   1.037       .  S
N701        C708   1.357       .  A
N701        C709   1.363       .  A
N702        C707   1.341       .  A
N702        C706   1.344       .  A
N702        H733   1.041       .  S
N703        C710   1.354       .  A
N703        C711   1.356       .  A
C704        C712   1.391       .  A
C704        C720   1.434       .  A
C705        C721   1.430       .  A
C705        C713   1.386       .  A
C706        C714   1.389       .  A
C706        C723   1.394       .  A
C707        C722   1.389       .  A
C707        C715   1.386       .  A
C708        C720   1.436       .  A
C708        C716   1.390       .  A
C709        C723   1.434       .  A
C709        C717   1.386       .  A
C710        C718   1.387       .  A
C710        C721   1.424       .  A
C711        C719   1.385       .  A
C711        C722   1.421       .  A
C712        C713   1.375       .  A
C712        H724   1.081       .  S
C713        H725   1.082       .  S
C714        C715   1.368       .  A
C714        H726   1.082       .  S
C715        H727   1.083       .  S
C716        C717   1.392       .  A
C716        H728   1.082       .  S
C717        H729   1.082       .  S
C718        C719   1.384       .  A
C718        H730   1.082       .  S
C719        H731   1.082       .  S
C723       C1301   1.493       .  S
O734        C750   1.278       .  A
O734       Zn740   1.996       .  S
C735        O751   1.279       .  A
C735        O748   1.280       .  A
O736        C749   1.282       .  A
O736       Cd743   2.162       .  S
O737        C755   1.252       .  A
O737       Cd746   1.979       .  S
O738        C752   1.278       .  A
O738       Cd742   2.028       .  S
O739        C750   1.268       .  A
O739       Cd742   2.044   1_545  S
Zn740       O751   2.052   1_545  S
Zn740       O753   1.928       .  S
Zn740       O745   1.851   1_545  S
O741        C752   1.274       .  A
O741       Cd746   2.104       .  S
Cd742       O744   1.963   1_565  S
Cd742       O745   1.914       .  S
Cd743       O747   2.150       .  S
Cd743       O756   2.114   1_545  S
Cd743       O745   1.967   1_545  S
O744        C754   1.251       .  A
O745       Cd746   1.917       .  S
Cd746       O748   2.039       .  S
O747        C754   1.290       .  A
C749        O753   1.246       .  A
C749       C2277   1.512       .  S
C750       C2014   1.471       .  S
C754       C1355   1.480       .  S
C755        O756   1.279       .  A
C755       C1249   1.490       .  S
O757        C773   1.277       .  A
O757       Zn763   1.957   1_556  S
C758        O774   1.272       .  A
C758        O771   1.279       .  A
C758       C1946   1.483       .  S
O759        C772   1.290       .  A
O759       Cd766   2.169       .  S
O760        C778   1.251       .  A
O760       Cd769   1.970       .  S
O761        C775   1.279       .  A
O761       Cd765   2.027       .  S
O762        C773   1.273       .  A
O762       Cd765   2.102       .  S
Zn763       O774   2.056       .  S
Zn763       O776   1.925       .  S
Zn763       O768   1.803   1_554  S
O764        C775   1.274       .  A
O764       Cd769   2.088   1_556  S
Cd765       O767   1.975       .  S
Cd765       O768   1.929       .  S
Cd766       O770   2.142   1_554  S
Cd766       O779   2.167       .  S
Cd766       O768   1.963   1_554  S
O767        C777   1.248       .  A
O768       Cd769   1.911   1_556  S
Cd769       O771   2.063       .  S
O770        C777   1.283       .  A
C772        O776   1.250       .  A
C772       C2278   1.491       .  S
C775        C872   1.479       .  S
C777       C1535   1.497       .  S
C778        O779   1.287       .  A
C778       C1147   1.502       .  S
C780        C973   1.517       .  S
C780        C781   1.418       .  A
C780        C785   1.413       .  A
C781        C782   1.419       .  A
C781        H786   1.083       .  S
C782       C1007   1.514       .  S
C782        C783   1.415       .  A
C783        C784   1.414       .  A
C783        H787   1.084       .  S
C784        C904   1.515       .  S
C784        C785   1.415       .  A
C785        H788   1.083       .  S
C789        C871   1.515       .  S
C789        C790   1.418       .  A
C789        C794   1.416       .  A
C790        C791   1.415       .  A
C790        H795   1.083       .  S
C791        C972   1.517       .  S
C791        C792   1.414       .  A
C792        C793   1.416   1_556  A
C792        H796   1.084       .  S
C793        C939   1.518       .  S
C793        C794   1.415   1_554  A
C794        H797   1.083       .  S
C798        C905   1.507       .  S
C798        C799   1.412       .  A
C798        C803   1.413       .  A
C799        C800   1.411       .  A
C799        H804   1.084       .  S
C800        C870   1.509       .  S
C800        C801   1.410       .  A
C801        C802   1.412       .  A
C801        H805   1.084       .  S
C802        C837   1.505       .  S
C802        C803   1.414       .  A
C803        H806   1.083       .  S
C807       C1006   1.509       .  S
C807        C808   1.407       .  A
C807        C812   1.417       .  A
C808        C809   1.410       .  A
C808        H813   1.084       .  S
C809        C938   1.509   1_556  S
C809        C810   1.419       .  A
C810        C811   1.418       .  A
C810        H814   1.083       .  S
C811        C836   1.524       .  S
C811        C812   1.416       .  A
C812        H815   1.084       .  S
N816        C821   1.355       .  A
N816        C820   1.362       .  A
N816        H848   1.038       .  S
N817        C824   1.362       .  A
N817        C825   1.359       .  A
N818        C823   1.347       .  A
N818        C822   1.346       .  A
N818        H849   1.042       .  S
N819        C826   1.359       .  A
N819        C827   1.361       .  A
C820        C828   1.384       .  A
C820        C836   1.429       .  A
C821        C837   1.424       .  A
C821        C829   1.387       .  A
C822        C830   1.389       .  A
C822        C839   1.402       .  A
C823        C838   1.393       .  A
C823        C831   1.382       .  A
C824        C836   1.425       .  A
C824        C832   1.381       .  A
C825        C839   1.446       .  A
C825        C833   1.394       .  A
C826        C834   1.387       .  A
C826        C837   1.430       .  A
C827        C835   1.385       .  A
C827        C838   1.430       .  A
C828        C829   1.377       .  A
C828        H840   1.073       .  S
C829        H841   1.082       .  S
C830        C831   1.370       .  A
C830        H842   1.078       .  S
C831        H843   1.083       .  S
C832        C833   1.379       .  A
C832        H844   1.081   1_556  S
C833        H845   1.081   1_556  S
C834        C835   1.385       .  A
C834        H846   1.082       .  S
C835        H847   1.081       .  S
N850        C855   1.361       .  A
N850        C854   1.361       .  A
N850        H882   1.025       .  S
N851        C858   1.359       .  A
N851        C859   1.358       .  A
N852        C857   1.345       .  A
N852        C856   1.346       .  A
N852        H883   1.038       .  S
N853        C860   1.360       .  A
N853        C861   1.359       .  A
C854        C862   1.387       .  A
C854        C870   1.432       .  A
C855        C871   1.435       .  A
C855        C863   1.389       .  A
C856        C864   1.388       .  A
C856        C873   1.393       .  A
C857        C872   1.390       .  A
C857        C865   1.386       .  A
C858        C870   1.426       .  A
C858        C866   1.383       .  A
C859        C873   1.434       .  A
C859        C867   1.388       .  A
C860        C868   1.388       .  A
C860        C871   1.436       .  A
C861        C869   1.385       .  A
C861        C872   1.431       .  A
C862        C863   1.379       .  A
C862        H874   1.082       .  S
C863        H875   1.082       .  S
C864        C865   1.358       .  A
C864        H876   1.083       .  S
C865        H877   1.083       .  S
C866        C867   1.373       .  A
C866        H878   1.083       .  S
C867        H879   1.074       .  S
C868        C869   1.385       .  A
C868        H880   1.082       .  S
C869        H881   1.081       .  S
C873       C1280   1.480       .  S
N884        C889   1.359       .  A
N884        C888   1.362       .  A
N884        H916   1.038       .  S
N885        C892   1.358       .  A
N885        C893   1.361       .  A
N886        C891   1.342       .  A
N886        C890   1.343       .  A
N886        H917   1.043       .  S
N887        C894   1.356       .  A
N887        C895   1.359       .  A
C888        C896   1.387       .  A
C888        C904   1.430       .  A
C889        C905   1.430       .  A
C889        C897   1.388       .  A
C890        C898   1.388       .  A
C890        C907   1.396       .  A
C891        C906   1.389       .  A
C891        C899   1.384       .  A
C892        C904   1.425       .  A
C892        C900   1.382       .  A
C893        C907   1.443       .  A
C893        C901   1.391       .  A
C894        C902   1.389       .  A
C894        C905   1.429       .  A
C895        C903   1.386       .  A
C895        C906   1.428       .  A
C896        C897   1.378       .  A
C896        H908   1.081       .  S
C897        H909   1.080       .  S
C898        C899   1.370       .  A
C898        H910   1.079       .  S
C899        H911   1.083       .  S
C900        C901   1.380       .  A
C900        H912   1.082       .  S
C901        H913   1.074       .  S
C902        C903   1.388       .  A
C902        H914   1.082       .  S
C903        H915   1.083       .  S
N918        C923   1.357       .  A
N918        C922   1.356       .  A
N918        H950   1.035       .  S
N919        C926   1.364       .  A
N919        C927   1.363       .  A
N920        C925   1.347       .  A
N920        C924   1.350       .  A
N920        H951   1.042       .  S
N921        C928   1.365       .  A
N921        C929   1.362       .  A
C922        C930   1.387   1_554  A
C922        C938   1.420       .  A
C923        C939   1.423       .  A
C923        C931   1.385   1_554  A
C924        C932   1.384       .  A
C924        C941   1.403       .  A
C925        C940   1.408       .  A
C925        C933   1.389       .  A
C926        C938   1.427       .  A
C926        C934   1.378       .  A
C927        C941   1.449       .  A
C927        C935   1.392       .  A
C928        C936   1.377       .  A
C928        C939   1.428       .  A
C929        C937   1.394       .  A
C929        C940   1.451       .  A
C930        C931   1.369       .  A
C930        H942   1.082       .  S
C931        H943   1.074       .  S
C932        C933   1.375       .  A
C932        H944   1.081       .  S
C933        H945   1.080       .  S
C934        C935   1.375       .  A
C934        H946   1.083       .  S
C935        H947   1.071       .  S
C936        C937   1.376       .  A
C936        H948   1.082       .  S
C937        H949   1.068       .  S
N952        C957   1.364       .  A
N952        C956   1.361       .  A
N952        H984   1.037       .  S
N953        C960   1.360       .  A
N953        C961   1.364       .  A
N954        C959   1.341       .  A
N954        C958   1.346       .  A
N954        H985   1.044       .  S
N955        C962   1.357       .  A
N955        C963   1.357       .  A
C956        C964   1.386       .  A
C956        C972   1.433       .  A
C957        C973   1.433       .  A
C957        C965   1.386       .  A
C958        C966   1.383       .  A
C958        C975   1.394       .  A
C959        C974   1.398       .  A
C959        C967   1.389       .  A
C960        C972   1.426       .  A
C960        C968   1.379       .  A
C961        C975   1.447       .  A
C961        C969   1.388       .  A
C962        C970   1.386       .  A
C962        C973   1.428       .  A
C963        C971   1.387       .  A
C963        C974   1.429       .  A
C964        C965   1.379       .  A
C964        H976   1.076       .  S
C965        H977   1.081       .  S
C966        C967   1.370       .  A
C966        H978   1.079       .  S
C967        H979   1.080       .  S
C968        C969   1.377       .  A
C968        H980   1.082       .  S
C969        H981   1.066       .  S
C970        C971   1.384       .  A
C970        H982   1.082       .  S
C971        H983   1.080       .  S
N986        C991   1.360       .  A
N986        C990   1.357       .  A
N986       H1018   1.037       .  S
N987        C994   1.357       .  A
N987        C995   1.361       .  A
N988        C993   1.338       .  A
N988        C992   1.344       .  A
N988       H1019   1.044       .  S
N989        C996   1.358       .  A
N989        C997   1.354       .  A
C990        C998   1.386       .  A
C990       C1006   1.426       .  A
C991       C1007   1.424       .  A
C991        C999   1.385       .  A
C992       C1000   1.385       .  A
C992       C1009   1.392       .  A
C993       C1008   1.386       .  A
C993       C1001   1.389       .  A
C994       C1006   1.424       .  A
C994       C1002   1.383       .  A
C995       C1009   1.445       .  A
C995       C1003   1.392       .  A
C996       C1004   1.386       .  A
C996       C1007   1.428       .  A
C997       C1005   1.388       .  A
C997       C1008   1.426       .  A
C998        C999   1.373       .  A
C998       H1010   1.076       .  S
C999       H1011   1.082       .  S
C1000      C1001   1.373       .  A
C1000      H1012   1.081       .  S
C1001      H1013   1.082       .  S
C1002      C1003   1.380       .  A
C1002      H1014   1.082   1_556  S
C1003      H1015   1.080   1_556  S
C1004      C1005   1.388       .  A
C1004      H1016   1.082       .  S
C1005      H1017   1.082       .  S
C1008      C2042   1.464       .  S
C1020      C1246   1.504       .  S
C1020      C1021   1.410       .  A
C1020      C1025   1.413       .  A
C1021      C1022   1.411       .  A
C1021      H1026   1.084       .  S
C1022      C1213   1.509       .  S
C1022      C1023   1.416       .  A
C1023      C1024   1.414       .  A
C1023      H1027   1.083       .  S
C1024      C1050   1.513       .  S
C1024      C1025   1.411       .  A
C1025      H1028   1.084       .  S
N1029      C1034   1.362       .  A
N1029      C1033   1.357       .  A
N1029      H1061   1.033       .  S
N1030      C1037   1.363       .  A
N1030      C1038   1.364       .  A
N1031      C1036   1.344       .  A
N1031      C1035   1.350       .  A
N1031      H1062   1.039       .  S
N1032      C1039   1.359       .  A
N1032      C1040   1.356       .  A
C1033      C1041   1.389       .  A
C1033      C1049   1.428       .  A
C1034      C1050   1.428       .  A
C1034      C1042   1.386       .  A
C1035      C1043   1.387       .  A
C1035      C1052   1.399       .  A
C1036      C1051   1.394       .  A
C1036      C1044   1.387       .  A
C1037      C1049   1.432       .  A
C1037      C1045   1.381       .  A
C1038      C1052   1.448       .  A
C1038      C1046   1.390       .  A
C1039      C1047   1.386       .  A
C1039      C1050   1.428       .  A
C1040      C1048   1.386       .  A
C1040      C1051   1.426       .  A
C1041      C1042   1.373       .  A
C1041      H1053   1.080       .  S
C1042      H1054   1.081       .  S
C1043      C1044   1.362       .  A
C1043      H1055   1.082       .  S
C1044      H1056   1.083       .  S
C1045      C1046   1.375       .  A
C1045      H1057   1.083       .  S
C1046      H1058   1.072       .  S
C1047      C1048   1.383       .  A
C1047      H1059   1.082       .  S
C1048      H1060   1.081       .  S
C1049      C1083   1.508       .  S
C1063      C1212   1.500       .  S
C1063      C1064   1.409       .  A
C1063      C1068   1.410       .  A
C1064      C1065   1.409       .  A
C1064      H1069   1.084       .  S
C1065      C1178   1.510   1_554  S
C1065      C1066   1.417       .  A
C1066      C1067   1.418       .  A
C1066      H1070   1.083       .  S
C1067      C1144   1.512       .  S
C1067      C1068   1.409       .  A
C1068      H1071   1.084       .  S
C1072      C1111   1.508       .  S
C1072      C1073   1.411       .  A
C1072      C1077   1.413       .  A
C1073      C1074   1.412       .  A
C1073      H1078   1.083       .  S
C1074      C1179   1.517   1_554  S
C1074      C1075   1.422       .  A
C1075      C1076   1.421       .  A
C1075      H1079   1.083       .  S
C1076      C1247   1.519       .  S
C1076      C1077   1.414       .  A
C1077      H1080   1.084       .  S
C1081      C1145   1.514       .  S
C1081      C1082   1.415       .  A
C1081      C1086   1.418       .  A
C1082      C1083   1.415       .  A
C1082      H1087   1.083       .  S
C1083      C1084   1.410       .  A
C1084      C1085   1.408       .  A
C1084      H1088   1.084       .  S
C1085      C1110   1.509       .  S
C1085      C1086   1.413       .  A
C1086      H1089   1.083       .  S
N1090      C1095   1.364       .  A
N1090      C1094   1.363       .  A
N1090      H1122   1.036       .  S
N1091      C1098   1.353       .  A
N1091      C1099   1.357       .  A
N1092      C1097   1.342       .  A
N1092      C1096   1.343       .  A
N1092      H1123   1.043       .  S
N1093      C1100   1.351       .  A
N1093      C1101   1.354       .  A
C1094      C1102   1.387       .  A
C1094      C1110   1.438       .  A
C1095      C1111   1.437       .  A
C1095      C1103   1.386       .  A
C1096      C1104   1.383       .  A
C1096      C1113   1.387       .  A
C1097      C1112   1.394       .  A
C1097      C1105   1.391       .  A
C1098      C1110   1.427       .  A
C1098      C1106   1.389       .  A
C1099      C1113   1.422       .  A
C1099      C1107   1.384       .  A
C1100      C1108   1.389       .  A
C1100      C1111   1.422       .  A
C1101      C1109   1.385       .  A
C1101      C1112   1.418       .  A
C1102      C1103   1.379       .  A
C1102      H1114   1.078       .  S
C1103      H1115   1.080       .  S
C1104      C1105   1.364       .  A
C1104      H1116   1.082       .  S
C1105      H1117   1.080       .  S
C1106      C1107   1.384       .  A
C1106      H1118   1.082       .  S
C1107      H1119   1.082       .  S
C1108      C1109   1.385       .  A
C1108      H1120   1.082       .  S
C1109      H1121   1.082       .  S
N1124      C1129   1.361       .  A
N1124      C1128   1.362       .  A
N1124      H1156   1.036       .  S
N1125      C1132   1.357       .  A
N1125      C1133   1.361       .  A
N1126      C1131   1.340       .  A
N1126      C1130   1.342       .  A
N1126      H1157   1.044       .  S
N1127      C1134   1.356       .  A
N1127      C1135   1.361       .  A
C1128      C1136   1.386       .  A
C1128      C1144   1.429       .  A
C1129      C1145   1.436       .  A
C1129      C1137   1.390       .  A
C1130      C1138   1.381       .  A
C1130      C1147   1.385       .  A
C1131      C1146   1.402       .  A
C1131      C1139   1.392       .  A
C1132      C1144   1.423       .  A
C1132      C1140   1.381       .  A
C1133      C1147   1.439       .  A
C1133      C1141   1.389       .  A
C1134      C1142   1.388       .  A
C1134      C1145   1.434       .  A
C1135      C1143   1.385       .  A
C1135      C1146   1.433       .  A
C1136      C1137   1.377       .  A
C1136      H1148   1.082       .  S
C1137      H1149   1.079       .  S
C1138      C1139   1.370       .  A
C1138      H1150   1.081       .  S
C1139      H1151   1.079       .  S
C1140      C1141   1.378       .  A
C1140      H1152   1.082       .  S
C1141      H1153   1.072       .  S
C1142      C1143   1.389       .  A
C1142      H1154   1.082       .  S
C1143      H1155   1.080       .  S
N1158      C1163   1.361       .  A
N1158      C1162   1.359       .  A
N1158      H1190   1.037       .  S
N1159      C1166   1.358       .  A
N1159      C1167   1.359       .  A
N1160      C1165   1.345       .  A
N1160      C1164   1.344       .  A
N1160      H1191   1.042       .  S
N1161      C1168   1.360       .  A
N1161      C1169   1.363       .  A
C1162      C1170   1.388   1_556  A
C1162      C1178   1.429       .  A
C1163      C1179   1.430       .  A
C1163      C1171   1.389   1_556  A
C1164      C1172   1.383       .  A
C1164      C1181   1.392       .  A
C1165      C1180   1.401       .  A
C1165      C1173   1.389       .  A
C1166      C1178   1.429       .  A
C1166      C1174   1.388       .  A
C1167      C1181   1.429       .  A
C1167      C1175   1.386       .  A
C1168      C1176   1.382       .  A
C1168      C1179   1.430       .  A
C1169      C1177   1.393       .  A
C1169      C1180   1.447       .  A
C1170      C1171   1.381       .  A
C1170      H1182   1.082       .  S
C1171      H1183   1.082       .  S
C1172      C1173   1.368       .  A
C1172      H1184   1.083       .  S
C1173      H1185   1.078       .  S
C1174      C1175   1.385       .  A
C1174      H1186   1.082       .  S
C1175      H1187   1.082       .  S
C1176      C1177   1.382       .  A
C1176      H1188   1.082       .  S
C1177      H1189   1.077       .  S
C1181      C1278   1.483       .  S
N1192      C1197   1.360       .  A
N1192      C1196   1.355       .  A
N1192      H1224   1.040       .  S
N1193      C1200   1.356       .  A
N1193      C1201   1.359       .  A
N1194      C1199   1.345       .  A
N1194      C1198   1.342       .  A
N1194      H1225   1.044       .  S
N1195      C1202   1.357       .  A
N1195      C1203   1.356       .  A
C1196      C1204   1.391       .  A
C1196      C1212   1.426       .  A
C1197      C1213   1.421       .  A
C1197      C1205   1.385       .  A
C1198      C1206   1.391       .  A
C1198      C1215   1.400       .  A
C1199      C1214   1.392       .  A
C1199      C1207   1.383       .  A
C1200      C1212   1.427       .  A
C1200      C1208   1.387       .  A
C1201      C1215   1.429       .  A
C1201      C1209   1.388       .  A
C1202      C1210   1.381       .  A
C1202      C1213   1.418       .  A
C1203      C1211   1.393       .  A
C1203      C1214   1.437       .  A
C1204      C1205   1.377       .  A
C1204      H1216   1.081       .  S
C1205      H1217   1.081       .  S
C1206      C1207   1.369       .  A
C1206      H1218   1.079       .  S
C1207      H1219   1.081       .  S
C1208      C1209   1.385       .  A
C1208      H1220   1.082       .  S
C1209      H1221   1.081       .  S
C1210      C1211   1.376       .  A
C1210      H1222   1.082       .  S
C1211      H1223   1.080       .  S
N1226      C1231   1.358       .  A
N1226      C1230   1.361       .  A
N1226      H1258   1.040       .  S
N1227      C1234   1.353       .  A
N1227      C1235   1.357       .  A
N1228      C1233   1.337       .  A
N1228      C1232   1.341       .  A
N1228      H1259   1.043       .  S
N1229      C1236   1.361       .  A
N1229      C1237   1.362       .  A
C1230      C1238   1.384       .  A
C1230      C1246   1.422       .  A
C1231      C1247   1.428       .  A
C1231      C1239   1.387       .  A
C1232      C1240   1.388       .  A
C1232      C1249   1.390       .  A
C1233      C1248   1.384       .  A
C1233      C1241   1.384       .  A
C1234      C1246   1.416       .  A
C1234      C1242   1.382       .  A
C1235      C1249   1.434       .  A
C1235      C1243   1.392       .  A
C1236      C1244   1.385       .  A
C1236      C1247   1.436       .  A
C1237      C1245   1.385       .  A
C1237      C1248   1.441       .  A
C1238      C1239   1.372       .  A
C1238      H1250   1.080       .  S
C1239      H1251   1.076       .  S
C1240      C1241   1.367       .  A
C1240      H1252   1.079       .  S
C1241      H1253   1.082       .  S
C1242      C1243   1.382       .  A
C1242      H1254   1.082       .  S
C1243      H1255   1.076       .  S
C1244      C1245   1.389       .  A
C1244      H1256   1.082       .  S
C1245      H1257   1.077       .  S
O1260      C1276   1.280       .  A
O1260     Zn1266   1.989       .  S
C1261      O1277   1.270       .  A
C1261      O1274   1.275       .  A
C1261      C1707   1.468       .  S
O1262      C1275   1.293       .  A
O1262     Cd1269   2.200       .  S
O1263      C1281   1.246       .  A
O1263     Cd1272   1.982       .  S
O1264      C1278   1.282       .  A
O1264     Cd1268   2.052       .  S
O1265      C1276   1.269       .  A
O1265     Cd1268   2.073       .  S
Zn1266     O1277   2.014       .  S
Zn1266     O1279   1.889       .  S
Zn1266     O1271   1.850       .  S
O1267      C1278   1.274       .  A
O1267     Cd1272   2.087       .  S
Cd1268     O1270   1.960       .  S
Cd1268     O1271   1.902       .  S
Cd1269     O1273   2.158       .  S
Cd1269     O1282   2.185       .  S
Cd1269     O1271   1.964       .  S
O1270      C1280   1.253       .  A
O1271     Cd1272   1.917       .  S
Cd1272     O1274   2.032       .  S
O1273      C1280   1.290       .  A
C1275      O1279   1.245       .  A
C1275      C1913   1.498       .  S
C1276      C1433   1.486       .  S
C1281      O1282   1.285       .  A
O1283      C1299   1.276       .  A
O1283     Zn1289   1.924       .  S
C1284      O1300   1.268       .  A
C1284      O1297   1.282       .  A
O1285      C1298   1.296       .  A
O1285     Cd1292   2.224   1_655  S
O1286      C1304   1.243       .  A
O1286     Cd1295   1.956   1_455  S
O1287      C1301   1.280       .  A
O1287     Cd1291   2.093   1_455  S
O1288      C1299   1.271       .  A
O1288     Cd1291   2.080   1_545  S
Zn1289     O1300   2.031   1_545  S
Zn1289     O1302   1.897       .  S
Zn1289     O1294   1.825   1_545  S
O1290      C1301   1.276       .  A
O1290     Cd1295   2.101   1_455  S
Cd1291     O1293   1.919   1_665  S
Cd1291     O1294   1.929       .  S
Cd1292     O1296   2.197       .  S
Cd1292     O1305   2.199   1_545  S
Cd1292     O1294   1.960   1_445  S
O1293      C1303   1.251       .  A
O1294     Cd1295   1.913       .  S
Cd1295     O1297   2.060       .  S
O1296      C1303   1.298       .  A
C1298      O1302   1.243       .  A
C1298      C1500   1.502       .  S
C1299      C2015   1.507       .  S
C1303      C2132   1.488       .  S
C1304      O1305   1.292       .  A
C1304      C1740   1.501       .  S
C1306      C1533   1.498       .  S
C1306      C1307   1.408       .  A
C1306      C1311   1.408       .  A
C1307      C1308   1.408       .  A
C1307      H1312   1.084       .  S
C1308      C1465   1.504   1_545  S
C1308      C1309   1.414       .  A
C1309      C1310   1.413       .  A
C1309      H1313   1.083       .  S
C1310      C1387   1.506       .  S
C1310      C1311   1.409       .  A
C1311      H1314   1.084       .  S
C1315      C1499   1.523       .  S
C1315      C1316   1.415       .  A
C1315      C1320   1.423       .  A
C1316      C1317   1.412       .  A
C1316      H1321   1.083       .  S
C1317      C1354   1.516       .  S
C1317      C1318   1.412       .  A
C1318      C1319   1.416       .  A
C1318      H1322   1.084       .  S
C1319      C1464   1.522   1_545  S
C1319      C1320   1.422       .  A
C1320      H1323   1.083       .  S
C1324      C1431   1.517       .  S
C1324      C1325   1.413       .  A
C1324      C1329   1.418       .  A
C1325      C1326   1.412       .  A
C1325      H1330   1.084       .  S
C1326      C1388   1.515       .  S
C1326      C1327   1.416       .  A
C1327      C1328   1.418       .  A
C1327      H1331   1.083       .  S
C1328      C1353   1.520       .  S
C1328      C1329   1.419       .  A
C1329      H1332   1.083       .  S
N1333      C1338   1.363       .  A
N1333      C1337   1.361       .  A
N1333      H1365   1.032       .  S
N1334      C1341   1.361       .  A
N1334      C1342   1.362       .  A
N1335      C1340   1.344       .  A
N1335      C1339   1.345       .  A
N1335      H1366   1.041       .  S
N1336      C1343   1.359       .  A
N1336      C1344   1.358       .  A
C1337      C1345   1.389       .  A
C1337      C1353   1.437       .  A
C1338      C1354   1.435       .  A
C1338      C1346   1.386       .  A
C1339      C1347   1.387       .  A
C1339      C1356   1.390       .  A
C1340      C1355   1.392       .  A
C1340      C1348   1.388       .  A
C1341      C1353   1.440       .  A
C1341      C1349   1.389       .  A
C1342      C1356   1.435       .  A
C1342      C1350   1.385       .  A
C1343      C1351   1.383       .  A
C1343      C1354   1.427       .  A
C1344      C1352   1.389       .  A
C1344      C1355   1.435       .  A
C1345      C1346   1.378       .  A
C1345      H1357   1.081       .  S
C1346      H1358   1.079       .  S
C1347      C1348   1.359       .  A
C1347      H1359   1.083       .  S
C1348      H1360   1.083       .  S
C1349      C1350   1.388       .  A
C1349      H1361   1.082       .  S
C1350      H1362   1.082       .  S
C1351      C1352   1.375       .  A
C1351      H1363   1.082       .  S
C1352      H1364   1.076       .  S
N1367      C1372   1.359       .  A
N1367      C1371   1.358       .  A
N1367      H1399   1.038       .  S
N1368      C1375   1.360       .  A
N1368      C1376   1.360       .  A
N1369      C1374   1.342       .  A
N1369      C1373   1.348       .  A
N1369      H1400   1.042       .  S
N1370      C1377   1.361       .  A
N1370      C1378   1.358       .  A
C1371      C1379   1.387       .  A
C1371      C1387   1.426       .  A
C1372      C1388   1.430       .  A
C1372      C1380   1.387       .  A
C1373      C1381   1.388       .  A
C1373      C1390   1.398       .  A
C1374      C1389   1.395       .  A
C1374      C1382   1.386       .  A
C1375      C1387   1.425       .  A
C1375      C1383   1.381       .  A
C1376      C1390   1.440       .  A
C1376      C1384   1.388       .  A
C1377      C1385   1.385       .  A
C1377      C1388   1.431       .  A
C1378      C1386   1.386       .  A
C1378      C1389   1.431       .  A
C1379      C1380   1.374       .  A
C1379      H1391   1.082       .  S
C1380      H1392   1.077       .  S
C1381      C1382   1.365       .  A
C1381      H1393   1.079       .  S
C1382      H1394   1.083       .  S
C1383      C1384   1.373       .  A
C1383      H1395   1.082       .  S
C1384      H1396   1.072       .  S
C1385      C1386   1.382       .  A
C1385      H1397   1.082       .  S
C1386      H1398   1.079       .  S
C1401      C1532   1.509       .  S
C1401      C1402   1.412       .  A
C1401      C1406   1.412       .  A
C1402      C1403   1.414       .  A
C1402      H1407   1.084       .  S
C1403      C1430   1.521       .  S
C1403      C1404   1.422       .  A
C1404      C1405   1.423       .  A
C1404      H1408   1.083       .  S
C1405      C1498   1.522       .  S
C1405      C1406   1.411       .  A
C1406      H1409   1.084       .  S
N1410      C1415   1.361       .  A
N1410      C1414   1.361       .  A
N1410      H1442   1.036       .  S
N1411      C1418   1.362       .  A
N1411      C1419   1.362       .  A
N1412      C1417   1.345       .  A
N1412      C1416   1.341       .  A
N1412      H1443   1.042       .  S
N1413      C1420   1.361       .  A
N1413      C1421   1.363       .  A
C1414      C1422   1.388       .  A
C1414      C1430   1.433       .  A
C1415      C1431   1.429       .  A
C1415      C1423   1.385       .  A
C1416      C1424   1.385       .  A
C1416      C1433   1.390       .  A
C1417      C1432   1.395       .  A
C1417      C1425   1.388       .  A
C1418      C1430   1.437       .  A
C1418      C1426   1.386       .  A
C1419      C1433   1.437       .  A
C1419      C1427   1.386       .  A
C1420      C1428   1.379       .  A
C1420      C1431   1.425       .  A
C1421      C1429   1.391       .  A
C1421      C1432   1.446       .  A
C1422      C1423   1.376       .  A
C1422      H1434   1.082       .  S
C1423      H1435   1.078       .  S
C1424      C1425   1.368       .  A
C1424      H1436   1.083       .  S
C1425      H1437   1.080       .  S
C1426      C1427   1.387       .  A
C1426      H1438   1.082       .  S
C1427      H1439   1.080       .  S
C1428      C1429   1.376       .  A
C1428      H1440   1.082       .  S
C1429      H1441   1.071       .  S
N1444      C1449   1.358       .  A
N1444      C1448   1.361       .  A
N1444      H1476   1.037       .  S
N1445      C1452   1.360       .  A
N1445      C1453   1.359       .  A
N1446      C1451   1.347       .  A
N1446      C1450   1.341       .  A
N1446      H1477   1.044       .  S
N1447      C1454   1.357       .  A
N1447      C1455   1.363       .  A
C1448      C1456   1.388   1_565  A
C1448      C1464   1.431       .  A
C1449      C1465   1.425       .  A
C1449      C1457   1.387   1_565  A
C1450      C1458   1.392       .  A
C1450      C1467   1.402       .  A
C1451      C1466   1.391       .  A
C1451      C1459   1.382       .  A
C1452      C1464   1.434       .  A
C1452      C1460   1.385       .  A
C1453      C1467   1.435       .  A
C1453      C1461   1.386       .  A
C1454      C1462   1.382       .  A
C1454      C1465   1.424       .  A
C1455      C1463   1.390       .  A
C1455      C1466   1.441       .  A
C1456      C1457   1.374       .  A
C1456      H1468   1.079       .  S
C1457      H1469   1.082       .  S
C1458      C1459   1.369       .  A
C1458      H1470   1.079       .  S
C1459      H1471   1.081       .  S
C1460      C1461   1.389       .  A
C1460      H1472   1.082       .  S
C1461      H1473   1.078       .  S
C1462      C1463   1.381       .  A
C1462      H1474   1.082       .  S
C1463      H1475   1.075       .  S
N1478      C1483   1.359       .  A
N1478      C1482   1.361       .  A
N1478      H1510   1.035       .  S
N1479      C1486   1.365       .  A
N1479      C1487   1.364       .  A
N1480      C1485   1.346       .  A
N1480      C1484   1.347       .  A
N1480      H1511   1.042       .  S
N1481      C1488   1.366       .  A
N1481      C1489   1.365       .  A
C1482      C1490   1.388       .  A
C1482      C1498   1.428       .  A
C1483      C1499   1.430       .  A
C1483      C1491   1.388       .  A
C1484      C1492   1.387       .  A
C1484      C1501   1.394       .  A
C1485      C1500   1.396       .  A
C1485      C1493   1.385       .  A
C1486      C1498   1.433       .  A
C1486      C1494   1.380       .  A
C1487      C1501   1.450       .  A
C1487      C1495   1.392       .  A
C1488      C1496   1.380       .  A
C1488      C1499   1.436       .  A
C1489      C1497   1.389       .  A
C1489      C1500   1.451       .  A
C1490      C1491   1.376       .  A
C1490      H1502   1.082       .  S
C1491      H1503   1.081       .  S
C1492      C1493   1.366       .  A
C1492      H1504   1.080       .  S
C1493      H1505   1.082       .  S
C1494      C1495   1.380       .  A
C1494      H1506   1.082       .  S
C1495      H1507   1.072       .  S
C1496      C1497   1.377       .  A
C1496      H1508   1.082       .  S
C1497      H1509   1.071       .  S
C1501      C2047   1.507       .  S
N1512      C1517   1.359       .  A
N1512      C1516   1.360       .  A
N1512      H1544   1.036       .  S
N1513      C1520   1.358       .  A
N1513      C1521   1.360       .  A
N1514      C1519   1.341       .  A
N1514      C1518   1.343       .  A
N1514      H1545   1.042       .  S
N1515      C1522   1.353       .  A
N1515      C1523   1.356       .  A
C1516      C1524   1.388       .  A
C1516      C1532   1.428       .  A
C1517      C1533   1.428       .  A
C1517      C1525   1.388       .  A
C1518      C1526   1.390       .  A
C1518      C1535   1.395       .  A
C1519      C1534   1.385       .  A
C1519      C1527   1.382       .  A
C1520      C1532   1.424       .  A
C1520      C1528   1.381       .  A
C1521      C1535   1.441       .  A
C1521      C1529   1.392       .  A
C1522      C1530   1.388       .  A
C1522      C1533   1.423       .  A
C1523      C1531   1.384       .  A
C1523      C1534   1.421       .  A
C1524      C1525   1.378       .  A
C1524      H1536   1.082       .  S
C1525      H1537   1.082       .  S
C1526      C1527   1.365       .  A
C1526      H1538   1.079       .  S
C1527      H1539   1.083       .  S
C1528      C1529   1.377       .  A
C1528      H1540   1.082       .  S
C1529      H1541   1.074       .  S
C1530      C1531   1.382       .  A
C1530      H1542   1.082       .  S
C1531      H1543   1.079       .  S
C1546      C1705   1.503   1_455  S
C1546      C1547   1.411       .  A
C1546      C1551   1.411       .  A
C1547      C1548   1.410       .  A
C1547      H1552   1.084       .  S
C1548      C1576   1.509       .  S
C1548      C1549   1.413       .  A
C1549      C1550   1.414       .  A
C1549      H1553   1.084       .  S
C1550      C1739   1.509       .  S
C1550      C1551   1.412       .  A
C1551      H1554   1.083       .  S
N1555      C1560   1.358       .  A
N1555      C1559   1.360       .  A
N1555      H1587   1.037       .  S
N1556      C1563   1.361       .  A
N1556      C1564   1.359       .  A
N1557      C1562   1.348       .  A
N1557      C1561   1.342       .  A
N1557      H1588   1.043       .  S
N1558      C1565   1.362       .  A
N1558      C1566   1.365       .  A
C1559      C1567   1.389       .  A
C1559      C1575   1.429       .  A
C1560      C1576   1.425       .  A
C1560      C1568   1.387       .  A
C1561      C1569   1.392       .  A
C1561      C1578   1.403       .  A
C1562      C1577   1.394       .  A
C1562      C1570   1.382       .  A
C1563      C1575   1.432       .  A
C1563      C1571   1.386       .  A
C1564      C1578   1.434       .  A
C1564      C1572   1.389       .  A
C1565      C1573   1.378       .  A
C1565      C1576   1.425       .  A
C1566      C1574   1.386       .  A
C1566      C1577   1.446       .  A
C1567      C1568   1.376       .  A
C1567      H1579   1.082       .  S
C1568      H1580   1.081       .  S
C1569      C1570   1.368       .  A
C1569      H1581   1.079       .  S
C1570      H1582   1.080       .  S
C1571      C1572   1.385       .  A
C1571      H1583   1.082       .  S
C1572      H1584   1.081       .  S
C1573      C1574   1.373       .  A
C1573      H1585   1.082       .  S
C1574      H1586   1.060       .  S
C1575      C1600   1.517       .  S
C1589      C1628   1.507       .  S
C1589      C1590   1.414       .  A
C1589      C1594   1.413       .  A
C1590      C1591   1.412       .  A
C1590      H1595   1.083       .  S
C1591      C1738   1.518       .  S
C1591      C1592   1.420       .  A
C1592      C1593   1.420       .  A
C1592      H1596   1.083       .  S
C1593      C1773   1.515       .  S
C1593      C1594   1.410       .  A
C1594      H1597   1.084       .  S
C1598      C1670   1.518       .  S
C1598      C1599   1.416       .  A
C1598      C1603   1.416       .  A
C1599      C1600   1.417       .  A
C1599      H1604   1.083       .  S
C1600      C1601   1.417       .  A
C1601      C1602   1.414       .  A
C1601      H1605   1.083       .  S
C1602      C1627   1.519       .  S
C1602      C1603   1.415       .  A
C1603      H1606   1.083       .  S
N1607      C1612   1.354       .  A
N1607      C1611   1.360       .  A
N1607      H1639   1.038       .  S
N1608      C1615   1.363       .  A
N1608      C1616   1.357       .  A
N1609      C1614   1.348       .  A
N1609      C1613   1.344       .  A
N1609      H1640   1.042       .  S
N1610      C1617   1.363       .  A
N1610      C1618   1.365       .  A
C1611      C1619   1.386       .  A
C1611      C1627   1.426       .  A
C1612      C1628   1.423       .  A
C1612      C1620   1.388       .  A
C1613      C1621   1.385       .  A
C1613      C1630   1.398       .  A
C1614      C1629   1.401       .  A
C1614      C1622   1.388       .  A
C1615      C1627   1.423       .  A
C1615      C1623   1.380       .  A
C1616      C1630   1.436       .  A
C1616      C1624   1.386       .  A
C1617      C1625   1.380       .  A
C1617      C1628   1.429       .  A
C1618      C1626   1.393       .  A
C1618      C1629   1.449       .  A
C1619      C1620   1.379       .  A
C1619      H1631   1.078       .  S
C1620      H1632   1.082       .  S
C1621      C1622   1.373       .  A
C1621      H1633   1.082       .  S
C1622      H1634   1.080       .  S
C1623      C1624   1.375       .  A
C1623      H1635   1.082       .  S
C1624      H1636   1.071       .  S
C1625      C1626   1.376       .  A
C1625      H1637   1.083       .  S
C1626      H1638   1.074       .  S
C1641      C1772   1.514       .  S
C1641      C1642   1.414       .  A
C1641      C1646   1.421       .  A
C1642      C1643   1.413       .  A
C1642      H1647   1.083       .  S
C1643      C1671   1.506       .  S
C1643      C1644   1.407       .  A
C1644      C1645   1.407       .  A
C1644      H1648   1.084       .  S
C1645      C1704   1.510   1_455  S
C1645      C1646   1.416       .  A
C1646      H1649   1.083       .  S
N1650      C1655   1.358       .  A
N1650      C1654   1.361       .  A
N1650      H1682   1.031       .  S
N1651      C1658   1.361       .  A
N1651      C1659   1.358       .  A
N1652      C1657   1.349       .  A
N1652      C1656   1.345       .  A
N1652      H1683   1.035       .  S
N1653      C1660   1.360       .  A
N1653      C1661   1.361       .  A
C1654      C1662   1.387       .  A
C1654      C1670   1.432       .  A
C1655      C1671   1.430       .  A
C1655      C1663   1.387       .  A
C1656      C1664   1.387       .  A
C1656      C1673   1.397       .  A
C1657      C1672   1.402       .  A
C1657      C1665   1.390       .  A
C1658      C1670   1.433       .  A
C1658      C1666   1.386       .  A
C1659      C1673   1.431       .  A
C1659      C1667   1.387       .  A
C1660      C1668   1.382       .  A
C1660      C1671   1.428       .  A
C1661      C1669   1.389       .  A
C1661      C1672   1.440       .  A
C1662      C1663   1.375       .  A
C1662      H1674   1.080       .  S
C1663      H1675   1.081       .  S
C1664      C1665   1.358       .  A
C1664      H1676   1.083       .  S
C1665      H1677   1.082       .  S
C1666      C1667   1.382       .  A
C1666      H1678   1.082       .  S
C1667      H1679   1.081       .  S
C1668      C1669   1.372       .  A
C1668      H1680   1.082       .  S
C1669      H1681   1.075       .  S
C1672      C2046   1.489       .  S
N1684      C1689   1.361       .  A
N1684      C1688   1.363       .  A
N1684      H1716   1.038       .  S
N1685      C1692   1.354       .  A
N1685      C1693   1.356       .  A
N1686      C1691   1.338       .  A
N1686      C1690   1.336       .  A
N1686      H1717   1.041       .  S
N1687      C1694   1.352       .  A
N1687      C1695   1.358       .  A
C1688      C1696   1.387   1_655  A
C1688      C1704   1.432       .  A
C1689      C1705   1.431       .  A
C1689      C1697   1.388   1_655  A
C1690      C1698   1.389       .  A
C1690      C1707   1.385       .  A
C1691      C1706   1.382       .  A
C1691      C1699   1.385       .  A
C1692      C1704   1.424       .  A
C1692      C1700   1.387       .  A
C1693      C1707   1.424       .  A
C1693      C1701   1.384       .  A
C1694      C1702   1.389       .  A
C1694      C1705   1.425       .  A
C1695      C1703   1.384       .  A
C1695      C1706   1.425       .  A
C1696      C1697   1.378       .  A
C1696      H1708   1.080       .  S
C1697      H1709   1.082       .  S
C1698      C1699   1.366       .  A
C1698      H1710   1.081       .  S
C1699      H1711   1.083       .  S
C1700      C1701   1.385       .  A
C1700      H1712   1.082       .  S
C1701      H1713   1.078       .  S
C1702      C1703   1.387       .  A
C1702      H1714   1.082       .  S
C1703      H1715   1.081       .  S
N1718      C1723   1.351       .  A
N1718      C1722   1.359       .  A
N1718      H1750   1.033       .  S
N1719      C1726   1.363       .  A
N1719      C1727   1.355       .  A
N1720      C1725   1.345       .  A
N1720      C1724   1.347       .  A
N1720      H1751   1.042       .  S
N1721      C1728   1.367       .  A
N1721      C1729   1.365       .  A
C1722      C1730   1.385       .  A
C1722      C1738   1.423       .  A
C1723      C1739   1.424       .  A
C1723      C1731   1.390       .  A
C1724      C1732   1.387       .  A
C1724      C1741   1.394       .  A
C1725      C1740   1.396       .  A
C1725      C1733   1.387       .  A
C1726      C1738   1.424       .  A
C1726      C1734   1.380       .  A
C1727      C1741   1.442       .  A
C1727      C1735   1.391       .  A
C1728      C1736   1.378       .  A
C1728      C1739   1.435       .  A
C1729      C1737   1.390       .  A
C1729      C1740   1.454       .  A
C1730      C1731   1.376       .  A
C1730      H1742   1.079       .  S
C1731      H1743   1.081       .  S
C1732      C1733   1.362       .  A
C1732      H1744   1.079       .  S
C1733      H1745   1.082       .  S
C1734      C1735   1.377       .  A
C1734      H1746   1.082       .  S
C1735      H1747   1.078       .  S
C1736      C1737   1.374       .  A
C1736      H1748   1.082       .  S
C1737      H1749   1.069       .  S
N1752      C1757   1.365       .  A
N1752      C1756   1.364       .  A
N1752      H1784   1.039       .  S
N1753      C1760   1.351       .  A
N1753      C1761   1.360       .  A
N1754      C1759   1.335       .  A
N1754      C1758   1.337       .  A
N1754      H1785   1.046       .  S
N1755      C1762   1.349       .  A
N1755      C1763   1.357       .  A
C1756      C1764   1.388       .  A
C1756      C1772   1.436       .  A
C1757      C1773   1.437       .  A
C1757      C1765   1.385       .  A
C1758      C1766   1.385       .  A
C1758      C1775   1.385       .  A
C1759      C1774   1.384       .  A
C1759      C1767   1.386       .  A
C1760      C1772   1.432       .  A
C1760      C1768   1.391       .  A
C1761      C1775   1.431       .  A
C1761      C1769   1.385       .  A
C1762      C1770   1.391       .  A
C1762      C1773   1.429       .  A
C1763      C1771   1.384       .  A
C1763      C1774   1.427       .  A
C1764      C1765   1.376       .  A
C1764      H1776   1.082       .  S
C1765      H1777   1.076       .  S
C1766      C1767   1.369       .  A
C1766      H1778   1.079       .  S
C1767      H1779   1.083       .  S
C1768      C1769   1.395       .  A
C1768      H1780   1.082       .  S
C1769      H1781   1.082       .  S
C1770      C1771   1.396       .  A
C1770      H1782   1.082       .  S
C1771      H1783   1.080       .  S
C1786      C1815   1.502       .  S
C1786      C1787   1.408       .  A
C1786      C1791   1.411       .  A
C1787      C1788   1.408       .  A
C1787      H1792   1.084       .  S
C1788      C2013   1.500       .  S
C1788      C1789   1.411       .  A
C1789      C1790   1.412       .  A
C1789      H1793   1.083       .  S
C1790      C1945   1.505       .  S
C1790      C1791   1.411       .  A
C1791      H1794   1.084       .  S
N1795      C1800   1.360       .  A
N1795      C1799   1.357       .  A
N1795      H1827   1.037       .  S
N1796      C1803   1.358       .  A
N1796      C1804   1.362       .  A
N1797      C1802   1.340       .  A
N1797      C1801   1.346       .  A
N1797      H1828   1.042       .  S
N1798      C1805   1.355       .  A
N1798      C1806   1.354       .  A
C1799      C1807   1.389       .  A
C1799      C1815   1.424       .  A
C1800      C1816   1.425       .  A
C1800      C1808   1.387       .  A
C1801      C1809   1.386       .  A
C1801      C1818   1.393       .  A
C1802      C1817   1.390       .  A
C1802      C1810   1.386       .  A
C1803      C1815   1.426       .  A
C1803      C1811   1.383       .  A
C1804      C1818   1.442       .  A
C1804      C1812   1.391       .  A
C1805      C1813   1.386       .  A
C1805      C1816   1.423       .  A
C1806      C1814   1.386       .  A
C1806      C1817   1.422       .  A
C1807      C1808   1.375       .  A
C1807      H1819   1.082       .  S
C1808      H1820   1.082       .  S
C1809      C1810   1.368       .  A
C1809      H1821   1.080       .  S
C1810      H1822   1.083       .  S
C1811      C1812   1.379       .  A
C1811      H1823   1.082       .  S
C1812      H1824   1.077       .  S
C1813      C1814   1.383       .  A
C1813      H1825   1.082       .  S
C1814      H1826   1.080       .  S
C1816      C1829   1.505       .  S
C1829      C1830   1.415       .  A
C1829      C1834   1.409       .  A
C1830      C1831   1.415       .  A
C1830      H1835   1.083       .  S
C1831      C1910   1.513       .  S
C1831      C1832   1.411       .  A
C1832      C1833   1.412       .  A
C1832      H1836   1.084       .  S
C1833      C1978   1.503       .  S
C1833      C1834   1.408       .  A
C1834      H1837   1.084       .  S
C1838      C1944   1.525       .  S
C1838      C1839   1.419       .  A
C1838      C1843   1.422       .  A
C1839      C1840   1.415       .  A
C1839      H1844   1.083       .  S
C1840      C1876   1.525   1_655  S
C1840      C1841   1.416       .  A
C1841      C1842   1.420       .  A
C1841      H1845   1.083       .  S
C1842      C1979   1.524       .  S
C1842      C1843   1.421       .  A
C1843      H1846   1.083       .  S
C1847      C1877   1.533   1_655  S
C1847      C1848   1.425       .  A
C1847      C1852   1.421       .  A
C1848      C1849   1.424       .  A
C1848      H1853   1.083       .  S
C1849      C2012   1.525       .  S
C1849      C1850   1.418       .  A
C1850      C1851   1.415       .  A
C1850      H1854   1.084       .  S
C1851      C1911   1.525       .  S
C1851      C1852   1.419       .  A
C1852      H1855   1.083       .  S
N1856      C1861   1.364       .  A
N1856      C1860   1.363       .  A
N1856      H1888   1.036       .  S
N1857      C1864   1.364       .  A
N1857      C1865   1.365       .  A
N1858      C1863   1.348       .  A
N1858      C1862   1.348       .  A
N1858      H1889   1.042       .  S
N1859      C1866   1.367       .  A
N1859      C1867   1.366       .  A
C1860      C1868   1.385   1_455  A
C1860      C1876   1.434       .  A
C1861      C1877   1.434       .  A
C1861      C1869   1.386   1_455  A
C1862      C1870   1.385       .  A
C1862      C1879   1.403       .  A
C1863      C1878   1.406       .  A
C1863      C1871   1.388       .  A
C1864      C1876   1.431       .  A
C1864      C1872   1.381       .  A
C1865      C1879   1.447       .  A
C1865      C1873   1.392       .  A
C1866      C1874   1.379       .  A
C1866      C1877   1.436       .  A
C1867      C1875   1.393       .  A
C1867      C1878   1.454       .  A
C1868      C1869   1.378       .  A
C1868      H1880   1.076       .  S
C1869      H1881   1.078       .  S
C1870      C1871   1.375       .  A
C1870      H1882   1.081       .  S
C1871      H1883   1.080       .  S
C1872      C1873   1.376       .  A
C1872      H1884   1.082       .  S
C1873      H1885   1.074       .  S
C1874      C1875   1.378       .  A
C1874      H1886   1.082       .  S
C1875      H1887   1.073       .  S
N1890      C1895   1.364       .  A
N1890      C1894   1.361       .  A
N1890      H1922   1.033       .  S
N1891      C1898   1.361       .  A
N1891      C1899   1.363       .  A
N1892      C1897   1.344       .  A
N1892      C1896   1.347       .  A
N1892      H1923   1.042       .  S
N1893      C1900   1.360       .  A
N1893      C1901   1.359       .  A
C1894      C1902   1.387       .  A
C1894      C1910   1.432       .  A
C1895      C1911   1.437       .  A
C1895      C1903   1.386       .  A
C1896      C1904   1.386       .  A
C1896      C1913   1.392       .  A
C1897      C1912   1.389       .  A
C1897      C1905   1.386       .  A
C1898      C1910   1.430       .  A
C1898      C1906   1.382       .  A
C1899      C1913   1.443       .  A
C1899      C1907   1.389       .  A
C1900      C1908   1.387       .  A
C1900      C1911   1.435       .  A
C1901      C1909   1.386       .  A
C1901      C1912   1.431       .  A
C1902      C1903   1.376       .  A
C1902      H1914   1.082       .  S
C1903      H1915   1.075       .  S
C1904      C1905   1.363       .  A
C1904      H1916   1.083       .  S
C1905      H1917   1.083       .  S
C1906      C1907   1.375       .  A
C1906      H1918   1.083       .  S
C1907      H1919   1.075       .  S
C1908      C1909   1.387       .  A
C1908      H1920   1.082       .  S
C1909      H1921   1.081       .  S
C1912      C2044   1.481       .  S
N1924      C1929   1.361       .  A
N1924      C1928   1.362       .  A
N1924      H1956   1.037       .  S
N1925      C1932   1.364       .  A
N1925      C1933   1.366       .  A
N1926      C1931   1.345       .  A
N1926      C1930   1.348       .  A
N1926      H1957   1.043       .  S
N1927      C1934   1.355       .  A
N1927      C1935   1.358       .  A
C1928      C1936   1.390       .  A
C1928      C1944   1.434       .  A
C1929      C1945   1.430       .  A
C1929      C1937   1.387       .  A
C1930      C1938   1.390       .  A
C1930      C1947   1.403       .  A
C1931      C1946   1.391       .  A
C1931      C1939   1.381       .  A
C1932      C1944   1.438       .  A
C1932      C1940   1.384       .  A
C1933      C1947   1.450       .  A
C1933      C1941   1.391       .  A
C1934      C1942   1.388       .  A
C1934      C1945   1.426       .  A
C1935      C1943   1.385       .  A
C1935      C1946   1.423       .  A
C1936      C1937   1.377       .  A
C1936      H1948   1.081       .  S
C1937      H1949   1.082       .  S
C1938      C1939   1.369       .  A
C1938      H1950   1.079       .  S
C1939      H1951   1.083       .  S
C1940      C1941   1.386       .  A
C1940      H1952   1.082       .  S
C1941      H1953   1.078       .  S
C1942      C1943   1.384       .  A
C1942      H1954   1.082       .  S
C1943      H1955   1.082       .  S
N1958      C1963   1.362       .  A
N1958      C1962   1.359       .  A
N1958      H1990   1.036       .  S
N1959      C1966   1.355       .  A
N1959      C1967   1.361       .  A
N1960      C1965   1.337       .  A
N1960      C1964   1.343       .  A
N1960      H1991   1.044       .  S
N1961      C1968   1.359       .  A
N1961      C1969   1.360       .  A
C1962      C1970   1.387       .  A
C1962      C1978   1.428       .  A
C1963      C1979   1.433       .  A
C1963      C1971   1.387       .  A
C1964      C1972   1.383       .  A
C1964      C1981   1.388       .  A
C1965      C1980   1.393       .  A
C1965      C1973   1.390       .  A
C1966      C1978   1.423       .  A
C1966      C1974   1.382       .  A
C1967      C1981   1.439       .  A
C1967      C1975   1.389       .  A
C1968      C1976   1.387       .  A
C1968      C1979   1.436       .  A
C1969      C1977   1.388       .  A
C1969      C1980   1.437       .  A
C1970      C1971   1.375       .  A
C1970      H1982   1.081       .  S
C1971      H1983   1.077       .  S
C1972      C1973   1.369       .  A
C1972      H1984   1.080       .  S
C1973      H1985   1.080       .  S
C1974      C1975   1.380       .  A
C1974      H1986   1.082       .  S
C1975      H1987   1.073       .  S
C1976      C1977   1.393       .  A
C1976      H1988   1.082       .  S
C1977      H1989   1.082       .  S
N1992      C1997   1.362       .  A
N1992      C1996   1.362       .  A
N1992      H2024   1.037       .  S
N1993      C2000   1.358       .  A
N1993      C2001   1.364       .  A
N1994      C1999   1.335       .  A
N1994      C1998   1.335       .  A
N1994      H2025   1.043       .  S
N1995      C2002   1.349       .  A
N1995      C2003   1.354       .  A
C1996      C2004   1.389       .  A
C1996      C2012   1.436       .  A
C1997      C2013   1.429       .  A
C1997      C2005   1.385       .  A
C1998      C2006   1.390       .  A
C1998      C2015   1.388       .  A
C1999      C2014   1.378       .  A
C1999      C2007   1.383       .  A
C2000      C2012   1.440       .  A
C2000      C2008   1.388       .  A
C2001      C2015   1.444       .  A
C2001      C2009   1.384       .  A
C2002      C2010   1.388       .  A
C2002      C2013   1.419       .  A
C2003      C2011   1.383       .  A
C2003      C2014   1.417       .  A
C2004      C2005   1.377       .  A
C2004      H2016   1.078       .  S
C2005      H2017   1.082       .  S
C2006      C2007   1.369       .  A
C2006      H2018   1.079       .  S
C2007      H2019   1.082       .  S
C2008      C2009   1.396       .  A
C2008      H2020   1.082       .  S
C2009      H2021   1.077       .  S
C2010      C2011   1.383       .  A
C2010      H2022   1.082       .  S
C2011      H2023   1.079       .  S
O2026      C2042   1.270       .  A
O2026     Zn2032   1.959       .  S
C2027      O2043   1.273       .  A
C2027      O2040   1.275       .  A
O2028      C2041   1.287       .  A
O2028     Cd2035   2.185       .  S
O2029      C2047   1.247       .  A
O2029     Cd2038   1.968       .  S
O2030      C2044   1.279       .  A
O2030     Cd2034   2.028       .  S
O2031      C2042   1.272       .  A
O2031     Cd2034   2.067   1_455  S
Zn2032     O2043   1.965   1_455  S
Zn2032     O2045   1.810       .  S
Zn2032     O2037   1.823   1_455  S
O2033      C2044   1.274       .  A
O2033     Cd2038   2.096       .  S
Cd2034     O2036   1.974   1_655  S
Cd2034     O2037   1.926       .  S
Cd2035     O2039   2.153       .  S
Cd2035     O2048   2.171   1_455  S
Cd2035     O2037   1.994   1_455  S
O2036      C2046   1.251       .  A
O2037     Cd2038   1.900       .  S
Cd2038     O2040   2.031       .  S
O2039      C2046   1.286       .  A
C2041      O2045   1.238       .  A
C2041      C2210   1.504       .  S
C2047      O2048   1.288       .  A
C2049      C2207   1.520   1_554  S
C2049      C2050   1.418       .  A
C2049      C2054   1.418       .  A
C2050      C2051   1.416   1_455  A
C2050      H2055   1.083       .  S
C2051      C2275   1.517       .  S
C2051      C2052   1.413   1_655  A
C2052      C2053   1.413       .  A
C2052      H2056   1.084       .  S
C2053      C2078   1.514       .  S
C2053      C2054   1.417       .  A
C2054      H2057   1.083       .  S
N2058      C2063   1.362       .  A
N2058      C2062   1.364       .  A
N2058      H2090   1.038       .  S
N2059      C2066   1.353       .  A
N2059      C2067   1.356       .  A
N2060      C2065   1.342       .  A
N2060      C2064   1.339       .  A
N2060      H2091   1.044       .  S
N2061      C2068   1.351       .  A
N2061      C2069   1.359       .  A
C2062      C2070   1.386       .  A
C2062      C2078   1.434       .  A
C2063      C2079   1.436       .  A
C2063      C2071   1.389       .  A
C2064      C2072   1.383       .  A
C2064      C2081   1.381       .  A
C2065      C2080   1.397       .  A
C2065      C2073   1.390       .  A
C2066      C2078   1.427       .  A
C2066      C2074   1.389       .  A
C2067      C2081   1.423       .  A
C2067      C2075   1.385       .  A
C2068      C2076   1.389       .  A
C2068      C2079   1.427       .  A
C2069      C2077   1.385       .  A
C2069      C2080   1.427       .  A
C2070      C2071   1.381       .  A
C2070      H2082   1.081       .  S
C2071      H2083   1.081       .  S
C2072      C2073   1.368       .  A
C2072      H2084   1.083       .  S
C2073      H2085   1.079       .  S
C2074      C2075   1.389       .  A
C2074      H2086   1.082       .  S
C2075      H2087   1.082       .  S
C2076      C2077   1.385       .  A
C2076      H2088   1.082       .  S
C2077      H2089   1.079       .  S
C2079      C2101   1.506       .  S
C2092      C2131   1.503       .  S
C2092      C2093   1.414       .  A
C2092      C2097   1.410       .  A
C2093      C2094   1.408       .  A
C2093      H2098   1.084       .  S
C2094      C2242   1.507   1_545  S
C2094      C2095   1.410       .  A
C2095      C2096   1.414   1_455  A
C2095      H2099   1.084   1_455  S
C2096      C2276   1.504       .  S
C2096      C2097   1.410   1_655  A
C2097      H2100   1.084   1_455  S
C2101      C2102   1.406       .  A
C2101      C2106   1.414       .  A
C2102      C2103   1.409       .  A
C2102      H2107   1.084       .  S
C2103      C2174   1.498       .  S
C2103      C2104   1.410       .  A
C2104      C2105   1.410       .  A
C2104      H2108   1.084       .  S
C2105      C2130   1.505       .  S
C2105      C2106   1.415       .  A
C2106      H2109   1.083       .  S
N2110      C2115   1.357       .  A
N2110      C2114   1.356       .  A
N2110      H2142   1.038       .  S
N2111      C2118   1.358       .  A
N2111      C2119   1.357       .  A
N2112      C2117   1.345       .  A
N2112      C2116   1.338       .  A
N2112      H2143   1.043       .  S
N2113      C2120   1.356       .  A
N2113      C2121   1.358       .  A
C2114      C2122   1.386       .  A
C2114      C2130   1.422       .  A
C2115      C2131   1.425       .  A
C2115      C2123   1.389       .  A
C2116      C2124   1.387       .  A
C2116      C2133   1.384       .  A
C2117      C2132   1.392       .  A
C2117      C2125   1.387       .  A
C2118      C2130   1.426       .  A
C2118      C2126   1.386       .  A
C2119      C2133   1.425       .  A
C2119      C2127   1.387       .  A
C2120      C2128   1.383       .  A
C2120      C2131   1.421       .  A
C2121      C2129   1.387       .  A
C2121      C2132   1.437       .  A
C2122      C2123   1.376       .  A
C2122      H2134   1.081       .  S
C2123      H2135   1.080       .  S
C2124      C2125   1.369       .  A
C2124      H2136   1.083       .  S
C2125      H2137   1.082       .  S
C2126      C2127   1.385       .  A
C2126      H2138   1.082       .  S
C2127      H2139   1.082       .  S
C2128      C2129   1.379       .  A
C2128      H2140   1.082   1_455  S
C2129      H2141   1.076   1_455  S
C2144      C2173   1.511       .  S
C2144      C2145   1.411       .  A
C2144      C2149   1.420       .  A
C2145      C2146   1.411       .  A
C2145      H2150   1.084       .  S
C2146      C2208   1.512   1_554  S
C2146      C2147   1.415       .  A
C2147      C2148   1.413       .  A
C2147      H2151   1.084       .  S
C2148      C2241   1.518   1_545  S
C2148      C2149   1.418       .  A
C2149      H2152   1.083       .  S
N2153      C2158   1.359       .  A
N2153      C2157   1.361       .  A
N2153      H2185   1.036       .  S
N2154      C2161   1.357       .  A
N2154      C2162   1.358       .  A
N2155      C2160   1.341       .  A
N2155      C2159   1.340       .  A
N2155      H2186   1.041       .  S
N2156      C2163   1.351       .  A
N2156      C2164   1.357       .  A
C2157      C2165   1.386       .  A
C2157      C2173   1.427       .  A
C2158      C2174   1.432       .  A
C2158      C2166   1.390       .  A
C2159      C2167   1.389       .  A
C2159      C2176   1.387       .  A
C2160      C2175   1.390       .  A
C2160      C2168   1.386       .  A
C2161      C2173   1.429       .  A
C2161      C2169   1.387       .  A
C2162      C2176   1.427       .  A
C2162      C2170   1.386       .  A
C2163      C2171   1.388       .  A
C2163      C2174   1.424       .  A
C2164      C2172   1.385       .  A
C2164      C2175   1.423       .  A
C2165      C2166   1.375       .  A
C2165      H2177   1.082       .  S
C2166      H2178   1.081       .  S
C2167      C2168   1.369       .  A
C2167      H2179   1.083       .  S
C2168      H2180   1.082       .  S
C2169      C2170   1.387       .  A
C2169      H2181   1.082       .  S
C2170      H2182   1.082       .  S
C2171      C2172   1.384       .  A
C2171      H2183   1.082       .  S
C2172      H2184   1.080       .  S
N2187      C2192   1.355       .  A
N2187      C2191   1.357       .  A
N2187      H2219   1.041       .  S
N2188      C2195   1.366       .  A
N2188      C2196   1.361       .  A
N2189      C2194   1.347       .  A
N2189      C2193   1.344       .  A
N2189      H2220   1.043       .  S
N2190      C2197   1.362       .  A
N2190      C2198   1.359       .  A
C2191      C2199   1.384   1_556  A
C2191      C2207   1.419       .  A
C2192      C2208   1.423       .  A
C2192      C2200   1.387   1_556  A
C2193      C2201   1.388       .  A
C2193      C2210   1.402       .  A
C2194      C2209   1.402       .  A
C2194      C2202   1.386       .  A
C2195      C2207   1.425       .  A
C2195      C2203   1.378       .  A
C2196      C2210   1.452       .  A
C2196      C2204   1.396       .  A
C2197      C2205   1.383       .  A
C2197      C2208   1.424       .  A
C2198      C2206   1.391       .  A
C2198      C2209   1.440       .  A
C2199      C2200   1.376       .  A
C2199      H2211   1.077       .  S
C2200      H2212   1.075       .  S
C2201      C2202   1.379       .  A
C2201      H2213   1.081       .  S
C2202      H2214   1.081       .  S
C2203      C2204   1.377       .  A
C2203      H2215   1.082       .  S
C2204      H2216   1.079       .  S
C2205      C2206   1.376       .  A
C2205      H2217   1.081       .  S
C2206      H2218   1.080       .  S
N2221      C2226   1.360       .  A
N2221      C2225   1.364       .  A
N2221      H2253   1.036       .  S
N2222      C2229   1.356       .  A
N2222      C2230   1.357       .  A
N2223      C2228   1.340       .  A
N2223      C2227   1.335       .  A
N2223      H2254   1.043       .  S
N2224      C2231   1.354       .  A
N2224      C2232   1.361       .  A
C2225      C2233   1.386   1_565  A
C2225      C2241   1.435       .  A
C2226      C2242   1.432       .  A
C2226      C2234   1.386   1_565  A
C2227      C2235   1.386       .  A
C2227      C2244   1.386       .  A
C2228      C2243   1.388       .  A
C2228      C2236   1.386       .  A
C2229      C2241   1.428       .  A
C2229      C2237   1.386       .  A
C2230      C2244   1.430       .  A
C2230      C2238   1.385       .  A
C2231      C2239   1.383       .  A
C2231      C2242   1.421       .  A
C2232      C2240   1.390       .  A
C2232      C2243   1.438       .  A
C2233      C2234   1.379       .  A
C2233      H2245   1.080       .  S
C2234      H2246   1.076       .  S
C2235      C2236   1.370       .  A
C2235      H2247   1.081       .  S
C2236      H2248   1.080       .  S
C2237      C2238   1.386       .  A
C2237      H2249   1.082       .  S
C2238      H2250   1.077       .  S
C2239      C2240   1.381       .  A
C2239      H2251   1.082       .  S
C2240      H2252   1.076       .  S
N2255      C2260   1.354       .  A
N2255      C2259   1.359       .  A
N2255      H2287   1.033       .  S
N2256      C2263   1.364       .  A
N2256      C2264   1.357       .  A
N2257      C2262   1.352       .  A
N2257      C2261   1.347       .  A
N2257      H2288   1.042       .  S
N2258      C2265   1.362       .  A
N2258      C2266   1.362       .  A
C2259      C2267   1.384   1_655  A
C2259      C2275   1.422       .  A
C2260      C2276   1.422       .  A
C2260      C2268   1.386   1_655  A
C2261      C2269   1.385       .  A
C2261      C2278   1.400       .  A
C2262      C2277   1.405       .  A
C2262      C2270   1.388       .  A
C2263      C2275   1.426       .  A
C2263      C2271   1.377       .  A
C2264      C2278   1.442       .  A
C2264      C2272   1.389       .  A
C2265      C2273   1.378       .  A
C2265      C2276   1.425       .  A
C2266      C2274   1.394       .  A
C2266      C2277   1.447       .  A
C2267      C2268   1.369       .  A
C2267      H2279   1.079       .  S
C2268      H2280   1.076       .  S
C2269      C2270   1.368       .  A
C2269      H2281   1.083       .  S
C2270      H2282   1.079       .  S
C2271      C2272   1.374       .  A
C2271      H2283   1.083       .  S
C2272      H2284   1.068       .  S
C2273      C2274   1.374       .  A
C2273      H2285   1.082       .  S
C2274      H2286   1.071       .  S
